NAD_B_1


 52 56  0  0  0  0  0  0  0  0999 V2000
    5.3213   -0.2565   -5.3836 P   0  0  0  0  0  0  0  0  0  0  0  0
    5.4040   -1.7019   -5.0590 O   0  0  0  0  0  0  0  0  0  0  0  0
    5.1897    0.1208   -6.8136 O   0  0  0  0  0  0  0  0  0  0  0  0
    4.0971    0.3106   -4.5411 O   0  0  0  0  0  0  0  0  0  0  0  0
    2.6741    0.8045   -5.0971 P   0  0  0  0  0  0  0  0  0  0  0  0
    2.8335    1.1673   -6.5382 O   0  0  0  0  0  0  0  0  0  0  0  0
    2.0796    1.8063   -4.1775 O   0  0  0  0  0  0  0  0  0  0  0  0
    1.8394   -0.5769   -5.0381 O   0  0  0  0  0  0  0  0  0  0  0  0
    0.4294   -0.5433   -4.9072 C   0  0  0  0  0  0  0  0  0  0  0  0
   -0.8653   -0.0440   -0.5796 O   0  0  0  0  0  0  0  0  0  0  0  0
    0.0164   -2.0281   -2.1034 O   0  0  0  0  0  0  0  0  0  0  0  0
   -0.8732    1.0429   -3.6527 O   0  0  0  0  0  0  0  0  0  0  0  0
   -1.5860   -0.2363   -1.7866 C   0  0  0  0  0  0  0  0  0  0  0  0
   -0.8133   -1.0828   -2.7463 C   0  0  0  0  0  0  0  0  0  0  0  0
   -1.6985    1.0912   -2.5039 C   0  0  0  0  0  0  0  0  0  0  0  0
    0.0016   -0.0797   -3.5448 C   0  0  0  0  0  0  0  0  0  0  0  0
    0.0032    0.4100   -0.7787 H   0  0  0  0  0  0  0  0  0  0  0  0
    0.5067   -2.5635   -2.7911 H   0  0  0  0  0  0  0  0  0  0  0  0
   -3.0710    1.3825   -2.9200 N   0  0  0  0  0  0  0  0  0  0  0  0
   -3.3494    2.5044   -3.6640 C   0  0  0  0  0  0  0  0  0  0  0  0
   -4.0817    0.5301   -2.5538 C   0  0  0  0  0  0  0  0  0  0  0  0
   -4.6326    2.7898   -4.0467 C   0  0  0  0  0  0  0  0  0  0  0  0
   -5.6731    1.9516   -3.6949 C   0  0  0  0  0  0  0  0  0  0  0  0
   -5.3914    0.8038   -2.9304 C   0  0  0  0  0  0  0  0  0  0  0  0
   -6.5091   -1.2790   -2.9514 O   0  0  0  0  0  0  0  0  0  0  0  0
   -7.5169    0.3847   -1.7811 N   0  0  0  0  0  0  0  0  0  0  0  0
   -6.5156   -0.1047   -2.5328 C   0  0  0  0  0  0  0  0  0  0  0  0
   -7.4867    1.3326   -1.4638 H   0  0  0  0  0  0  0  0  0  0  0  0
   -8.2920   -0.1990   -1.5394 H   0  0  0  0  0  0  0  0  0  0  0  0
    6.6011    0.5317   -4.8117 O   0  0  0  0  0  0  0  0  0  0  0  0
    6.8684    0.6781   -3.4374 C   0  0  0  0  0  0  0  0  0  0  0  0
   10.7654    3.3508   -3.6774 O   0  0  0  0  0  0  0  0  0  0  0  0
    9.7404    1.9041   -1.6978 O   0  0  0  0  0  0  0  0  0  0  0  0
    9.0109    0.3779   -4.4951 O   0  0  0  0  0  0  0  0  0  0  0  0
    9.6711    2.5561   -4.0296 C   0  0  0  0  0  0  0  0  0  0  0  0
    8.8976    2.0457   -2.8192 C   0  0  0  0  0  0  0  0  0  0  0  0
   10.1007    1.2719   -4.6744 C   0  0  0  0  0  0  0  0  0  0  0  0
    8.3823    0.6866   -3.2584 C   0  0  0  0  0  0  0  0  0  0  0  0
   11.2349    3.6573   -4.5054 H   0  0  0  0  0  0  0  0  0  0  0  0
    9.2115    2.0533   -0.8624 H   0  0  0  0  0  0  0  0  0  0  0  0
   10.2696    0.8531  -10.6846 N   0  0  0  0  0  0  0  0  0  0  0  0
    8.8377   -0.4126   -9.3621 N   0  0  0  0  0  0  0  0  0  0  0  0
    8.7778   -0.2355   -7.0105 N   0  0  0  0  0  0  0  0  0  0  0  0
   11.2291    2.0812   -8.0312 N   0  0  0  0  0  0  0  0  0  0  0  0
   10.3756    1.4112   -6.1018 N   0  0  0  0  0  0  0  0  0  0  0  0
    8.3536   -0.7697   -8.1658 C   0  0  0  0  0  0  0  0  0  0  0  0
   11.2669    2.2286   -6.7098 C   0  0  0  0  0  0  0  0  0  0  0  0
    9.7917    0.5243   -9.4600 C   0  0  0  0  0  0  0  0  0  0  0  0
    9.7434    0.7073   -7.0659 C   0  0  0  0  0  0  0  0  0  0  0  0
   10.2911    1.1315   -8.2807 C   0  0  0  0  0  0  0  0  0  0  0  0
   10.9812    1.5501  -10.7731 H   0  0  0  0  0  0  0  0  0  0  0  0
    9.9106    0.3988  -11.4999 H   0  0  0  0  0  0  0  0  0  0  0  0
  5  6  2  0
  5  7  1  0
  5  4  1  0
  5  8  1  0
  1  2  2  0
  1  3  1  0
  1  4  1  0
  1 30  1  0
 25 27  2  0
 10 13  1  0
 32 35  1  0
 11 14  1  0
 33 36  1  0
  8  9  1  0
 30 31  1  0
 12 15  1  0
 12 16  1  0
 34 37  1  0
 34 38  1  0
 26 27  1  0
 41 48  1  0
 42 46  1  0
 42 48  2  0
 43 46  2  0
 43 49  1  0
 44 47  2  0
 44 50  1  0
 19 20  2  0
 19 21  1  0
 19 15  1  0
 45 47  1  0
 45 37  1  0
 45 49  1  0
  9 16  1  0
 31 38  1  0
 20 22  1  0
 21 24  2  0
 22 23  2  0
 23 24  1  0
 27 24  1  0
 13 14  1  0
 13 15  1  0
 35 36  1  0
 35 37  1  0
 14 16  1  0
 36 38  1  0
 48 50  1  0
 49 50  2  0
 10 17  1  0
 32 39  1  0
 11 18  1  0
 33 40  1  0
 26 28  1  0
 26 29  1  0
 41 51  1  0
 41 52  1  0
M  CHG 1   3  -1
M  CHG 1   7  -1
M  CHG 1  19   1
M  END
> <minimizedAffinity>
-8.47724

> <CNNscore>
0.2513046563

> <CNNaffinity>
5.1112279892

> <CNN_VS>
1.2844754457

> <CNNaffinity_variance>
0.1779138744

$$$$
NAD_B_1


 52 56  0  0  0  0  0  0  0  0999 V2000
    1.7629   -0.3319   -4.6111 P   0  0  0  0  0  0  0  0  0  0  0  0
    1.4093    1.0992   -4.7793 O   0  0  0  0  0  0  0  0  0  0  0  0
    1.6534   -1.2120   -5.8019 O   0  0  0  0  0  0  0  0  0  0  0  0
    3.2464   -0.3503   -4.0373 O   0  0  0  0  0  0  0  0  0  0  0  0
    4.6170   -0.3632   -4.8735 P   0  0  0  0  0  0  0  0  0  0  0  0
    4.9577   -1.7826   -5.1946 O   0  0  0  0  0  0  0  0  0  0  0  0
    5.6406    0.4747   -4.2005 O   0  0  0  0  0  0  0  0  0  0  0  0
    4.1314    0.3373   -6.2454 O   0  0  0  0  0  0  0  0  0  0  0  0
    4.6404    1.6091   -6.6057 C   0  0  0  0  0  0  0  0  0  0  0  0
    1.5507    4.7293   -7.7769 O   0  0  0  0  0  0  0  0  0  0  0  0
    3.1544    3.0428   -9.0497 O   0  0  0  0  0  0  0  0  0  0  0  0
    3.5977    3.5052   -5.5551 O   0  0  0  0  0  0  0  0  0  0  0  0
    2.9192    4.8155   -7.4124 C   0  0  0  0  0  0  0  0  0  0  0  0
    3.6740    3.6065   -7.8632 C   0  0  0  0  0  0  0  0  0  0  0  0
    3.0268    4.7522   -5.9044 C   0  0  0  0  0  0  0  0  0  0  0  0
    3.5570    2.6447   -6.6931 C   0  0  0  0  0  0  0  0  0  0  0  0
    1.1429    3.9210   -7.3521 H   0  0  0  0  0  0  0  0  0  0  0  0
    3.6959    2.2411   -9.3027 H   0  0  0  0  0  0  0  0  0  0  0  0
    3.8638    5.8235   -5.3625 N   0  0  0  0  0  0  0  0  0  0  0  0
    5.1980    5.8953   -5.6858 C   0  0  0  0  0  0  0  0  0  0  0  0
    3.3077    6.7531   -4.5206 C   0  0  0  0  0  0  0  0  0  0  0  0
    5.9899    6.8876   -5.1733 C   0  0  0  0  0  0  0  0  0  0  0  0
    5.4609    7.8395   -4.3232 C   0  0  0  0  0  0  0  0  0  0  0  0
    4.0957    7.7667   -3.9879 C   0  0  0  0  0  0  0  0  0  0  0  0
    2.3694    9.2209   -3.2858 O   0  0  0  0  0  0  0  0  0  0  0  0
    4.2627    9.2387   -2.0336 N   0  0  0  0  0  0  0  0  0  0  0  0
    3.5155    8.7874   -3.0558 C   0  0  0  0  0  0  0  0  0  0  0  0
    5.1782    8.8663   -1.8808 H   0  0  0  0  0  0  0  0  0  0  0  0
    3.9032    9.9467   -1.4258 H   0  0  0  0  0  0  0  0  0  0  0  0
    0.8762   -1.0072   -3.4519 O   0  0  0  0  0  0  0  0  0  0  0  0
   -0.5191   -0.8476   -3.3535 C   0  0  0  0  0  0  0  0  0  0  0  0
   -3.1566    1.7474   -0.4046 O   0  0  0  0  0  0  0  0  0  0  0  0
   -0.5232    1.4789   -0.6397 O   0  0  0  0  0  0  0  0  0  0  0  0
   -1.8022    1.1711   -3.6323 O   0  0  0  0  0  0  0  0  0  0  0  0
   -2.7333    1.0052   -1.5104 C   0  0  0  0  0  0  0  0  0  0  0  0
   -1.2774    0.5659   -1.4049 C   0  0  0  0  0  0  0  0  0  0  0  0
   -2.7067    1.8342   -2.7599 C   0  0  0  0  0  0  0  0  0  0  0  0
   -0.7889    0.5631   -2.8426 C   0  0  0  0  0  0  0  0  0  0  0  0
   -4.1143    2.0086   -0.5253 H   0  0  0  0  0  0  0  0  0  0  0  0
    0.2203    0.9937   -0.1795 H   0  0  0  0  0  0  0  0  0  0  0  0
   -8.4894    1.4075   -4.4047 N   0  0  0  0  0  0  0  0  0  0  0  0
   -7.6246    0.3636   -2.5170 N   0  0  0  0  0  0  0  0  0  0  0  0
   -5.3600    0.5427   -1.8812 N   0  0  0  0  0  0  0  0  0  0  0  0
   -5.6327    2.4756   -4.8151 N   0  0  0  0  0  0  0  0  0  0  0  0
   -4.0110    1.9346   -3.4089 N   0  0  0  0  0  0  0  0  0  0  0  0
   -6.6054    0.0792   -1.6965 C   0  0  0  0  0  0  0  0  0  0  0  0
   -4.3402    2.6131   -4.5329 C   0  0  0  0  0  0  0  0  0  0  0  0
   -7.4400    1.1501   -3.5870 C   0  0  0  0  0  0  0  0  0  0  0  0
   -5.1312    1.3333   -2.9522 C   0  0  0  0  0  0  0  0  0  0  0  0
   -6.1495    1.6748   -3.8478 C   0  0  0  0  0  0  0  0  0  0  0  0
   -8.3668    1.9924   -5.2066 H   0  0  0  0  0  0  0  0  0  0  0  0
   -9.3864    1.0126   -4.2064 H   0  0  0  0  0  0  0  0  0  0  0  0
  5  6  2  0
  5  7  1  0
  5  4  1  0
  5  8  1  0
  1  2  2  0
  1  3  1  0
  1  4  1  0
  1 30  1  0
 25 27  2  0
 10 13  1  0
 32 35  1  0
 11 14  1  0
 33 36  1  0
  8  9  1  0
 30 31  1  0
 12 15  1  0
 12 16  1  0
 34 37  1  0
 34 38  1  0
 26 27  1  0
 41 48  1  0
 42 46  1  0
 42 48  2  0
 43 46  2  0
 43 49  1  0
 44 47  2  0
 44 50  1  0
 19 20  2  0
 19 21  1  0
 19 15  1  0
 45 47  1  0
 45 37  1  0
 45 49  1  0
  9 16  1  0
 31 38  1  0
 20 22  1  0
 21 24  2  0
 22 23  2  0
 23 24  1  0
 27 24  1  0
 13 14  1  0
 13 15  1  0
 35 36  1  0
 35 37  1  0
 14 16  1  0
 36 38  1  0
 48 50  1  0
 49 50  2  0
 10 17  1  0
 32 39  1  0
 11 18  1  0
 33 40  1  0
 26 28  1  0
 26 29  1  0
 41 51  1  0
 41 52  1  0
M  CHG 1   3  -1
M  CHG 1   7  -1
M  CHG 1  19   1
M  END
> <minimizedAffinity>
-10.56526

> <CNNscore>
0.2438029051

> <CNNaffinity>
5.2802762985

> <CNN_VS>
1.2873467207

> <CNNaffinity_variance>
0.5069302320

$$$$
NAD_B_1


 52 56  0  0  0  0  0  0  0  0999 V2000
    1.0648   -0.5968   -2.1389 P   0  0  0  0  0  0  0  0  0  0  0  0
    0.6075   -1.9743   -2.4467 O   0  0  0  0  0  0  0  0  0  0  0  0
    1.5607   -0.3275   -0.7655 O   0  0  0  0  0  0  0  0  0  0  0  0
    2.1869   -0.2589   -3.2145 O   0  0  0  0  0  0  0  0  0  0  0  0
    1.9789    0.0736   -4.7715 P   0  0  0  0  0  0  0  0  0  0  0  0
    0.7831    0.9600   -4.9066 O   0  0  0  0  0  0  0  0  0  0  0  0
    2.0305   -1.1718   -5.5771 O   0  0  0  0  0  0  0  0  0  0  0  0
    3.2848    0.9807   -5.0557 O   0  0  0  0  0  0  0  0  0  0  0  0
    3.3932    1.6982   -6.2722 C   0  0  0  0  0  0  0  0  0  0  0  0
    1.6508    5.8644   -6.7827 O   0  0  0  0  0  0  0  0  0  0  0  0
    1.8007    3.6537   -8.2411 O   0  0  0  0  0  0  0  0  0  0  0  0
    3.7069    3.8527   -5.2496 O   0  0  0  0  0  0  0  0  0  0  0  0
    2.9596    5.3397   -6.9399 C   0  0  0  0  0  0  0  0  0  0  0  0
    2.9187    3.9251   -7.4214 C   0  0  0  0  0  0  0  0  0  0  0  0
    3.6062    5.2260   -5.5765 C   0  0  0  0  0  0  0  0  0  0  0  0
    2.8835    3.1045   -6.1434 C   0  0  0  0  0  0  0  0  0  0  0  0
    1.1489    5.3139   -6.1155 H   0  0  0  0  0  0  0  0  0  0  0  0
    1.8253    2.6974   -8.5323 H   0  0  0  0  0  0  0  0  0  0  0  0
    4.9440    5.8186   -5.5458 N   0  0  0  0  0  0  0  0  0  0  0  0
    5.1761    7.0432   -6.1258 C   0  0  0  0  0  0  0  0  0  0  0  0
    5.9693    5.1375   -4.9401 C   0  0  0  0  0  0  0  0  0  0  0  0
    6.4275    7.5985   -6.1115 C   0  0  0  0  0  0  0  0  0  0  0  0
    7.4815    6.9388   -5.5092 C   0  0  0  0  0  0  0  0  0  0  0  0
    7.2474    5.6833   -4.9173 C   0  0  0  0  0  0  0  0  0  0  0  0
    9.0718    4.1813   -4.9721 O   0  0  0  0  0  0  0  0  0  0  0  0
    8.6069    5.1164   -2.9566 N   0  0  0  0  0  0  0  0  0  0  0  0
    8.3876    4.9540   -4.2729 C   0  0  0  0  0  0  0  0  0  0  0  0
    8.0367    5.7458   -2.4285 H   0  0  0  0  0  0  0  0  0  0  0  0
    9.3402    4.6078   -2.5053 H   0  0  0  0  0  0  0  0  0  0  0  0
   -0.1025    0.4708   -2.4283 O   0  0  0  0  0  0  0  0  0  0  0  0
   -1.4572    0.1156   -2.5713 C   0  0  0  0  0  0  0  0  0  0  0  0
   -5.7817    1.5863   -1.3373 O   0  0  0  0  0  0  0  0  0  0  0  0
   -3.4221    1.8559   -0.1448 O   0  0  0  0  0  0  0  0  0  0  0  0
   -2.8891    1.8794   -3.3699 O   0  0  0  0  0  0  0  0  0  0  0  0
   -4.6856    1.1534   -2.0883 C   0  0  0  0  0  0  0  0  0  0  0  0
   -3.4258    0.9780   -1.2481 C   0  0  0  0  0  0  0  0  0  0  0  0
   -4.2443    2.1908   -3.0776 C   0  0  0  0  0  0  0  0  0  0  0  0
   -2.2968    1.3325   -2.1995 C   0  0  0  0  0  0  0  0  0  0  0  0
   -6.5774    1.6845   -1.9350 H   0  0  0  0  0  0  0  0  0  0  0  0
   -2.9174    1.4390    0.6111 H   0  0  0  0  0  0  0  0  0  0  0  0
   -6.9371    3.3855   -8.3358 N   0  0  0  0  0  0  0  0  0  0  0  0
   -5.5275    4.8875   -7.2595 N   0  0  0  0  0  0  0  0  0  0  0  0
   -4.4754    4.4056   -5.2039 N   0  0  0  0  0  0  0  0  0  0  0  0
   -6.3435    1.5160   -5.9646 N   0  0  0  0  0  0  0  0  0  0  0  0
   -5.0184    2.1680   -4.3156 N   0  0  0  0  0  0  0  0  0  0  0  0
   -4.7281    5.2214   -6.2385 C   0  0  0  0  0  0  0  0  0  0  0  0
   -5.8005    1.1747   -4.7993 C   0  0  0  0  0  0  0  0  0  0  0  0
   -6.1235    3.6871   -7.2949 C   0  0  0  0  0  0  0  0  0  0  0  0
   -5.0627    3.1892   -5.1988 C   0  0  0  0  0  0  0  0  0  0  0  0
   -5.9052    2.7728   -6.2342 C   0  0  0  0  0  0  0  0  0  0  0  0
   -7.3885    2.4941   -8.3756 H   0  0  0  0  0  0  0  0  0  0  0  0
   -7.0861    4.0544   -9.0640 H   0  0  0  0  0  0  0  0  0  0  0  0
  5  6  2  0
  5  7  1  0
  5  4  1  0
  5  8  1  0
  1  2  2  0
  1  3  1  0
  1  4  1  0
  1 30  1  0
 25 27  2  0
 10 13  1  0
 32 35  1  0
 11 14  1  0
 33 36  1  0
  8  9  1  0
 30 31  1  0
 12 15  1  0
 12 16  1  0
 34 37  1  0
 34 38  1  0
 26 27  1  0
 41 48  1  0
 42 46  1  0
 42 48  2  0
 43 46  2  0
 43 49  1  0
 44 47  2  0
 44 50  1  0
 19 20  2  0
 19 21  1  0
 19 15  1  0
 45 47  1  0
 45 37  1  0
 45 49  1  0
  9 16  1  0
 31 38  1  0
 20 22  1  0
 21 24  2  0
 22 23  2  0
 23 24  1  0
 27 24  1  0
 13 14  1  0
 13 15  1  0
 35 36  1  0
 35 37  1  0
 14 16  1  0
 36 38  1  0
 48 50  1  0
 49 50  2  0
 10 17  1  0
 32 39  1  0
 11 18  1  0
 33 40  1  0
 26 28  1  0
 26 29  1  0
 41 51  1  0
 41 52  1  0
M  CHG 1   3  -1
M  CHG 1   7  -1
M  CHG 1  19   1
M  END
> <minimizedAffinity>
-9.69077

> <CNNscore>
0.1742097288

> <CNNaffinity>
5.0540413857

> <CNN_VS>
0.8804631829

> <CNNaffinity_variance>
0.7673201561

$$$$
NAD_B_1


 52 56  0  0  0  0  0  0  0  0999 V2000
    1.0567    0.2337   -4.4104 P   0  0  0  0  0  0  0  0  0  0  0  0
    1.6642   -1.1199   -4.3906 O   0  0  0  0  0  0  0  0  0  0  0  0
    0.0369    0.5146   -5.4524 O   0  0  0  0  0  0  0  0  0  0  0  0
    0.4489    0.4605   -2.9581 O   0  0  0  0  0  0  0  0  0  0  0  0
   -0.2131   -0.6394   -1.9936 P   0  0  0  0  0  0  0  0  0  0  0  0
    0.2329   -0.3656   -0.5937 O   0  0  0  0  0  0  0  0  0  0  0  0
   -0.0095   -2.0014   -2.5470 O   0  0  0  0  0  0  0  0  0  0  0  0
   -1.7696   -0.2197   -2.0935 O   0  0  0  0  0  0  0  0  0  0  0  0
   -2.1792    1.0716   -1.6796 C   0  0  0  0  0  0  0  0  0  0  0  0
   -3.8908    4.1947   -4.5028 O   0  0  0  0  0  0  0  0  0  0  0  0
   -2.8585    4.1749   -2.0594 O   0  0  0  0  0  0  0  0  0  0  0  0
   -3.6029    1.0705   -3.6185 O   0  0  0  0  0  0  0  0  0  0  0  0
   -4.4899    3.2705   -3.6083 C   0  0  0  0  0  0  0  0  0  0  0  0
   -3.6247    3.0415   -2.4109 C   0  0  0  0  0  0  0  0  0  0  0  0
   -4.5362    1.9109   -4.2709 C   0  0  0  0  0  0  0  0  0  0  0  0
   -2.7391    1.8758   -2.8170 C   0  0  0  0  0  0  0  0  0  0  0  0
   -3.0085    3.8376   -4.8095 H   0  0  0  0  0  0  0  0  0  0  0  0
   -2.3018    3.9648   -1.2558 H   0  0  0  0  0  0  0  0  0  0  0  0
   -5.8627    1.2982   -4.1878 N   0  0  0  0  0  0  0  0  0  0  0  0
   -6.8036    1.5412   -5.1601 C   0  0  0  0  0  0  0  0  0  0  0  0
   -6.1640    0.4844   -3.1253 C   0  0  0  0  0  0  0  0  0  0  0  0
   -8.0506    0.9811   -5.0829 C   0  0  0  0  0  0  0  0  0  0  0  0
   -8.3857    0.1565   -4.0263 C   0  0  0  0  0  0  0  0  0  0  0  0
   -7.4253   -0.0916   -3.0276 C   0  0  0  0  0  0  0  0  0  0  0  0
   -8.3170   -2.0769   -2.1050 O   0  0  0  0  0  0  0  0  0  0  0  0
   -7.5663   -0.5333   -0.6195 N   0  0  0  0  0  0  0  0  0  0  0  0
   -7.7839   -0.9746   -1.8705 C   0  0  0  0  0  0  0  0  0  0  0  0
   -7.1358    0.3571   -0.4711 H   0  0  0  0  0  0  0  0  0  0  0  0
   -7.8348   -1.0954    0.1628 H   0  0  0  0  0  0  0  0  0  0  0  0
    2.1894    1.3663   -4.5525 O   0  0  0  0  0  0  0  0  0  0  0  0
    2.8219    1.6790   -5.7707 C   0  0  0  0  0  0  0  0  0  0  0  0
    3.6901    5.2661   -8.7314 O   0  0  0  0  0  0  0  0  0  0  0  0
    1.4479    3.9619   -8.1535 O   0  0  0  0  0  0  0  0  0  0  0  0
    3.2645    4.0224   -5.4365 O   0  0  0  0  0  0  0  0  0  0  0  0
    3.7892    4.3570   -7.6747 C   0  0  0  0  0  0  0  0  0  0  0  0
    2.6181    3.3825   -7.6218 C   0  0  0  0  0  0  0  0  0  0  0  0
    3.6739    5.0371   -6.3429 C   0  0  0  0  0  0  0  0  0  0  0  0
    2.4357    3.1068   -6.1398 C   0  0  0  0  0  0  0  0  0  0  0  0
    4.4802    5.8789   -8.7192 H   0  0  0  0  0  0  0  0  0  0  0  0
    0.8761    3.2476   -8.5572 H   0  0  0  0  0  0  0  0  0  0  0  0
    8.5278    8.4505   -5.2867 N   0  0  0  0  0  0  0  0  0  0  0  0
    6.8079    9.0929   -6.7117 N   0  0  0  0  0  0  0  0  0  0  0  0
    4.9106    7.7497   -7.1127 N   0  0  0  0  0  0  0  0  0  0  0  0
    6.8628    5.9024   -4.8336 N   0  0  0  0  0  0  0  0  0  0  0  0
    4.9349    5.6109   -5.8814 N   0  0  0  0  0  0  0  0  0  0  0  0
    5.6315    8.8640   -7.3089 C   0  0  0  0  0  0  0  0  0  0  0  0
    5.8333    5.0809   -5.0188 C   0  0  0  0  0  0  0  0  0  0  0  0
    7.3290    8.1942   -5.8641 C   0  0  0  0  0  0  0  0  0  0  0  0
    5.4047    6.8161   -6.2708 C   0  0  0  0  0  0  0  0  0  0  0  0
    6.6245    6.9910   -5.6097 C   0  0  0  0  0  0  0  0  0  0  0  0
    8.9288    7.7894   -4.6525 H   0  0  0  0  0  0  0  0  0  0  0  0
    9.0114    9.3006   -5.4948 H   0  0  0  0  0  0  0  0  0  0  0  0
  5  6  2  0
  5  7  1  0
  5  4  1  0
  5  8  1  0
  1  2  2  0
  1  3  1  0
  1  4  1  0
  1 30  1  0
 25 27  2  0
 10 13  1  0
 32 35  1  0
 11 14  1  0
 33 36  1  0
  8  9  1  0
 30 31  1  0
 12 15  1  0
 12 16  1  0
 34 37  1  0
 34 38  1  0
 26 27  1  0
 41 48  1  0
 42 46  1  0
 42 48  2  0
 43 46  2  0
 43 49  1  0
 44 47  2  0
 44 50  1  0
 19 20  2  0
 19 21  1  0
 19 15  1  0
 45 47  1  0
 45 37  1  0
 45 49  1  0
  9 16  1  0
 31 38  1  0
 20 22  1  0
 21 24  2  0
 22 23  2  0
 23 24  1  0
 27 24  1  0
 13 14  1  0
 13 15  1  0
 35 36  1  0
 35 37  1  0
 14 16  1  0
 36 38  1  0
 48 50  1  0
 49 50  2  0
 10 17  1  0
 32 39  1  0
 11 18  1  0
 33 40  1  0
 26 28  1  0
 26 29  1  0
 41 51  1  0
 41 52  1  0
M  CHG 1   3  -1
M  CHG 1   7  -1
M  CHG 1  19   1
M  END
> <minimizedAffinity>
-10.12080

> <CNNscore>
0.1431305110

> <CNNaffinity>
5.0148515701

> <CNN_VS>
0.7177782655

> <CNNaffinity_variance>
0.3862290084

$$$$
NAD_B_1


 52 56  0  0  0  0  0  0  0  0999 V2000
    1.4355   -0.5359   -3.0363 P   0  0  0  0  0  0  0  0  0  0  0  0
    1.9072   -0.4576   -1.6317 O   0  0  0  0  0  0  0  0  0  0  0  0
    0.9809    0.7224   -3.6803 O   0  0  0  0  0  0  0  0  0  0  0  0
    2.6294   -1.1865   -3.8620 O   0  0  0  0  0  0  0  0  0  0  0  0
    4.1361   -0.6466   -3.9905 P   0  0  0  0  0  0  0  0  0  0  0  0
    4.9541   -1.2762   -2.9097 O   0  0  0  0  0  0  0  0  0  0  0  0
    4.1461    0.8323   -4.1142 O   0  0  0  0  0  0  0  0  0  0  0  0
    4.5755   -1.3299   -5.3865 O   0  0  0  0  0  0  0  0  0  0  0  0
    4.6877   -0.5366   -6.5546 C   0  0  0  0  0  0  0  0  0  0  0  0
    8.9602   -1.1168   -7.9910 O   0  0  0  0  0  0  0  0  0  0  0  0
    6.8265   -2.6535   -7.6415 O   0  0  0  0  0  0  0  0  0  0  0  0
    6.7649    0.6616   -6.3653 O   0  0  0  0  0  0  0  0  0  0  0  0
    8.3775   -1.0456   -6.6993 C   0  0  0  0  0  0  0  0  0  0  0  0
    6.9950   -1.6141   -6.7000 C   0  0  0  0  0  0  0  0  0  0  0  0
    8.1572    0.4085   -6.3434 C   0  0  0  0  0  0  0  0  0  0  0  0
    6.1096   -0.4225   -7.0228 C   0  0  0  0  0  0  0  0  0  0  0  0
    8.4015   -0.5977   -8.6378 H   0  0  0  0  0  0  0  0  0  0  0  0
    5.8873   -2.9939   -7.5977 H   0  0  0  0  0  0  0  0  0  0  0  0
    8.6770    0.7397   -5.0160 N   0  0  0  0  0  0  0  0  0  0  0  0
    9.2985   -0.2200   -4.2528 C   0  0  0  0  0  0  0  0  0  0  0  0
    8.5316    2.0159   -4.5342 C   0  0  0  0  0  0  0  0  0  0  0  0
    9.7767    0.0793   -3.0053 C   0  0  0  0  0  0  0  0  0  0  0  0
    9.6468    1.3550   -2.4909 C   0  0  0  0  0  0  0  0  0  0  0  0
    9.0081    2.3388   -3.2690 C   0  0  0  0  0  0  0  0  0  0  0  0
    9.5567    4.0589   -1.7433 O   0  0  0  0  0  0  0  0  0  0  0  0
    7.9239    4.5385   -3.2456 N   0  0  0  0  0  0  0  0  0  0  0  0
    8.8508    3.7226   -2.7142 C   0  0  0  0  0  0  0  0  0  0  0  0
    7.3766    4.2330   -4.0248 H   0  0  0  0  0  0  0  0  0  0  0  0
    7.7818    5.4509   -2.8617 H   0  0  0  0  0  0  0  0  0  0  0  0
    0.2297   -1.5906   -3.1762 O   0  0  0  0  0  0  0  0  0  0  0  0
   -1.1077   -1.2822   -2.8633 C   0  0  0  0  0  0  0  0  0  0  0  0
   -3.3053    2.1556   -0.4675 O   0  0  0  0  0  0  0  0  0  0  0  0
   -0.7305    1.5418   -0.7045 O   0  0  0  0  0  0  0  0  0  0  0  0
   -2.1777    0.7690   -3.5319 O   0  0  0  0  0  0  0  0  0  0  0  0
   -3.0181    1.1560   -1.4010 C   0  0  0  0  0  0  0  0  0  0  0  0
   -1.6146    0.5831   -1.2404 C   0  0  0  0  0  0  0  0  0  0  0  0
   -2.9625    1.6987   -2.7981 C   0  0  0  0  0  0  0  0  0  0  0  0
   -1.1991    0.2254   -2.6564 C   0  0  0  0  0  0  0  0  0  0  0  0
   -4.2339    2.4948   -0.6175 H   0  0  0  0  0  0  0  0  0  0  0  0
   -0.0223    1.0802   -0.1703 H   0  0  0  0  0  0  0  0  0  0  0  0
   -8.7769    1.3177   -4.3387 N   0  0  0  0  0  0  0  0  0  0  0  0
   -7.8828    0.2512   -2.4774 N   0  0  0  0  0  0  0  0  0  0  0  0
   -5.6058    0.4126   -1.8823 N   0  0  0  0  0  0  0  0  0  0  0  0
   -5.9227    2.3749   -4.7921 N   0  0  0  0  0  0  0  0  0  0  0  0
   -4.2781    1.8120   -3.4217 N   0  0  0  0  0  0  0  0  0  0  0  0
   -6.8500   -0.0463   -1.6788 C   0  0  0  0  0  0  0  0  0  0  0  0
   -4.6245    2.5030   -4.5328 C   0  0  0  0  0  0  0  0  0  0  0  0
   -7.7139    1.0470   -3.5431 C   0  0  0  0  0  0  0  0  0  0  0  0
   -5.3927    1.2122   -2.9499 C   0  0  0  0  0  0  0  0  0  0  0  0
   -6.4257    1.5675   -3.8229 C   0  0  0  0  0  0  0  0  0  0  0  0
   -8.6661    1.9096   -5.1371 H   0  0  0  0  0  0  0  0  0  0  0  0
   -9.6722    0.9256   -4.1274 H   0  0  0  0  0  0  0  0  0  0  0  0
  5  6  2  0
  5  7  1  0
  5  4  1  0
  5  8  1  0
  1  2  2  0
  1  3  1  0
  1  4  1  0
  1 30  1  0
 25 27  2  0
 10 13  1  0
 32 35  1  0
 11 14  1  0
 33 36  1  0
  8  9  1  0
 30 31  1  0
 12 15  1  0
 12 16  1  0
 34 37  1  0
 34 38  1  0
 26 27  1  0
 41 48  1  0
 42 46  1  0
 42 48  2  0
 43 46  2  0
 43 49  1  0
 44 47  2  0
 44 50  1  0
 19 20  2  0
 19 21  1  0
 19 15  1  0
 45 47  1  0
 45 37  1  0
 45 49  1  0
  9 16  1  0
 31 38  1  0
 20 22  1  0
 21 24  2  0
 22 23  2  0
 23 24  1  0
 27 24  1  0
 13 14  1  0
 13 15  1  0
 35 36  1  0
 35 37  1  0
 14 16  1  0
 36 38  1  0
 48 50  1  0
 49 50  2  0
 10 17  1  0
 32 39  1  0
 11 18  1  0
 33 40  1  0
 26 28  1  0
 26 29  1  0
 41 51  1  0
 41 52  1  0
M  CHG 1   3  -1
M  CHG 1   7  -1
M  CHG 1  19   1
M  END
> <minimizedAffinity>
-7.37858

> <CNNscore>
0.1353176683

> <CNNaffinity>
5.0474534035

> <CNN_VS>
0.6830096245

> <CNNaffinity_variance>
0.1321673840

$$$$
NAD_B_1


 52 56  0  0  0  0  0  0  0  0999 V2000
    0.7922    0.0602   -4.4561 P   0  0  0  0  0  0  0  0  0  0  0  0
    0.3825   -1.3424   -4.1985 O   0  0  0  0  0  0  0  0  0  0  0  0
    0.0318    0.8219   -5.4790 O   0  0  0  0  0  0  0  0  0  0  0  0
    0.7296    0.7987   -3.0486 O   0  0  0  0  0  0  0  0  0  0  0  0
    0.1926    0.2046   -1.6570 P   0  0  0  0  0  0  0  0  0  0  0  0
    1.2116    0.4881   -0.6011 O   0  0  0  0  0  0  0  0  0  0  0  0
   -0.2692   -1.1944   -1.8363 O   0  0  0  0  0  0  0  0  0  0  0  0
   -1.0654    1.1808   -1.3861 O   0  0  0  0  0  0  0  0  0  0  0  0
   -2.3671    0.7758   -1.7707 C   0  0  0  0  0  0  0  0  0  0  0  0
   -3.9827    4.0679   -4.4551 O   0  0  0  0  0  0  0  0  0  0  0  0
   -2.8187    3.9285   -2.0756 O   0  0  0  0  0  0  0  0  0  0  0  0
   -3.8937    0.9172   -3.6243 O   0  0  0  0  0  0  0  0  0  0  0  0
   -4.6016    3.1795   -3.5381 C   0  0  0  0  0  0  0  0  0  0  0  0
   -3.6910    2.8645   -2.3953 C   0  0  0  0  0  0  0  0  0  0  0  0
   -4.7929    1.8384   -4.2123 C   0  0  0  0  0  0  0  0  0  0  0  0
   -2.9250    1.6394   -2.8648 C   0  0  0  0  0  0  0  0  0  0  0  0
   -3.1502    3.6476   -4.8162 H   0  0  0  0  0  0  0  0  0  0  0  0
   -2.2359    3.6626   -1.3078 H   0  0  0  0  0  0  0  0  0  0  0  0
   -6.1569    1.3305   -4.0599 N   0  0  0  0  0  0  0  0  0  0  0  0
   -7.1592    1.7668   -4.8935 C   0  0  0  0  0  0  0  0  0  0  0  0
   -6.4306    0.4198   -3.0710 C   0  0  0  0  0  0  0  0  0  0  0  0
   -8.4401    1.3052   -4.7493 C   0  0  0  0  0  0  0  0  0  0  0  0
   -8.7489    0.3873   -3.7639 C   0  0  0  0  0  0  0  0  0  0  0  0
   -7.7252   -0.0589   -2.9070 C   0  0  0  0  0  0  0  0  0  0  0  0
   -8.1641   -2.2484   -2.1318 O   0  0  0  0  0  0  0  0  0  0  0  0
   -8.2653   -0.5982   -0.5763 N   0  0  0  0  0  0  0  0  0  0  0  0
   -8.0533   -1.0448   -1.8264 C   0  0  0  0  0  0  0  0  0  0  0  0
   -8.1667    0.3753   -0.3697 H   0  0  0  0  0  0  0  0  0  0  0  0
   -8.5216   -1.2393    0.1470 H   0  0  0  0  0  0  0  0  0  0  0  0
    2.3418    0.1343   -4.8793 O   0  0  0  0  0  0  0  0  0  0  0  0
    2.9606   -0.8121   -5.7179 C   0  0  0  0  0  0  0  0  0  0  0  0
    6.8244    1.5535   -4.3535 O   0  0  0  0  0  0  0  0  0  0  0  0
    6.5318   -0.7936   -5.5651 O   0  0  0  0  0  0  0  0  0  0  0  0
    4.0919    1.1327   -6.5763 O   0  0  0  0  0  0  0  0  0  0  0  0
    5.5184    1.2485   -4.7464 C   0  0  0  0  0  0  0  0  0  0  0  0
    5.3330   -0.2257   -5.0872 C   0  0  0  0  0  0  0  0  0  0  0  0
    5.1612    1.9043   -6.0471 C   0  0  0  0  0  0  0  0  0  0  0  0
    4.2851   -0.2202   -6.1861 C   0  0  0  0  0  0  0  0  0  0  0  0
    6.8899    2.5288   -4.1426 H   0  0  0  0  0  0  0  0  0  0  0  0
    6.5593   -1.7642   -5.3259 H   0  0  0  0  0  0  0  0  0  0  0  0
    2.3333    7.2223   -6.2681 N   0  0  0  0  0  0  0  0  0  0  0  0
    1.5887    5.3385   -7.4074 N   0  0  0  0  0  0  0  0  0  0  0  0
    2.7020    3.2611   -7.3085 N   0  0  0  0  0  0  0  0  0  0  0  0
    4.5996    5.4045   -5.2536 N   0  0  0  0  0  0  0  0  0  0  0  0
    4.7210    3.2877   -5.8895 N   0  0  0  0  0  0  0  0  0  0  0  0
    1.7097    4.0494   -7.7490 C   0  0  0  0  0  0  0  0  0  0  0  0
    5.2927    4.2732   -5.1587 C   0  0  0  0  0  0  0  0  0  0  0  0
    2.4770    5.9123   -6.5833 C   0  0  0  0  0  0  0  0  0  0  0  0
    3.6218    3.8036   -6.4814 C   0  0  0  0  0  0  0  0  0  0  0  0
    3.5545    5.1414   -6.0799 C   0  0  0  0  0  0  0  0  0  0  0  0
    2.9882    7.6637   -5.6547 H   0  0  0  0  0  0  0  0  0  0  0  0
    1.5724    7.7476   -6.6489 H   0  0  0  0  0  0  0  0  0  0  0  0
  5  6  2  0
  5  7  1  0
  5  4  1  0
  5  8  1  0
  1  2  2  0
  1  3  1  0
  1  4  1  0
  1 30  1  0
 25 27  2  0
 10 13  1  0
 32 35  1  0
 11 14  1  0
 33 36  1  0
  8  9  1  0
 30 31  1  0
 12 15  1  0
 12 16  1  0
 34 37  1  0
 34 38  1  0
 26 27  1  0
 41 48  1  0
 42 46  1  0
 42 48  2  0
 43 46  2  0
 43 49  1  0
 44 47  2  0
 44 50  1  0
 19 20  2  0
 19 21  1  0
 19 15  1  0
 45 47  1  0
 45 37  1  0
 45 49  1  0
  9 16  1  0
 31 38  1  0
 20 22  1  0
 21 24  2  0
 22 23  2  0
 23 24  1  0
 27 24  1  0
 13 14  1  0
 13 15  1  0
 35 36  1  0
 35 37  1  0
 14 16  1  0
 36 38  1  0
 48 50  1  0
 49 50  2  0
 10 17  1  0
 32 39  1  0
 11 18  1  0
 33 40  1  0
 26 28  1  0
 26 29  1  0
 41 51  1  0
 41 52  1  0
M  CHG 1   3  -1
M  CHG 1   7  -1
M  CHG 1  19   1
M  END
> <minimizedAffinity>
-10.28314

> <CNNscore>
0.1273787618

> <CNNaffinity>
5.1516227722

> <CNN_VS>
0.6562073231

> <CNNaffinity_variance>
1.0300681591

$$$$
NAD_B_1


 52 56  0  0  0  0  0  0  0  0999 V2000
    2.2266   -0.7288   -4.4122 P   0  0  0  0  0  0  0  0  0  0  0  0
    2.6140   -1.8742   -5.2721 O   0  0  0  0  0  0  0  0  0  0  0  0
    2.3502   -0.8996   -2.9424 O   0  0  0  0  0  0  0  0  0  0  0  0
    3.1014    0.5040   -4.9071 O   0  0  0  0  0  0  0  0  0  0  0  0
    4.6591    0.5025   -5.2966 P   0  0  0  0  0  0  0  0  0  0  0  0
    4.8388   -0.3512   -6.5100 O   0  0  0  0  0  0  0  0  0  0  0  0
    5.4903    0.2157   -4.1009 O   0  0  0  0  0  0  0  0  0  0  0  0
    4.8489    2.0390   -5.7568 O   0  0  0  0  0  0  0  0  0  0  0  0
    4.2254    2.5019   -6.9415 C   0  0  0  0  0  0  0  0  0  0  0  0
    1.0190    5.7219   -7.0083 O   0  0  0  0  0  0  0  0  0  0  0  0
    1.9384    3.8923   -8.6945 O   0  0  0  0  0  0  0  0  0  0  0  0
    3.7397    4.4998   -5.6931 O   0  0  0  0  0  0  0  0  0  0  0  0
    2.4222    5.7526   -7.2167 C   0  0  0  0  0  0  0  0  0  0  0  0
    2.9009    4.4845   -7.8471 C   0  0  0  0  0  0  0  0  0  0  0  0
    3.1148    5.7571   -5.8714 C   0  0  0  0  0  0  0  0  0  0  0  0
    3.2271    3.5884   -6.6645 C   0  0  0  0  0  0  0  0  0  0  0  0
    0.7883    4.9582   -6.4053 H   0  0  0  0  0  0  0  0  0  0  0  0
    2.3116    3.0514   -9.0864 H   0  0  0  0  0  0  0  0  0  0  0  0
    4.1293    6.8073   -5.7733 N   0  0  0  0  0  0  0  0  0  0  0  0
    4.6382    7.1711   -4.5492 C   0  0  0  0  0  0  0  0  0  0  0  0
    4.5637    7.4337   -6.9139 C   0  0  0  0  0  0  0  0  0  0  0  0
    5.5788    8.1608   -4.4483 C   0  0  0  0  0  0  0  0  0  0  0  0
    6.0378    8.8110   -5.5777 C   0  0  0  0  0  0  0  0  0  0  0  0
    5.5162    8.4427   -6.8321 C   0  0  0  0  0  0  0  0  0  0  0  0
    5.1949    9.3356   -8.9972 O   0  0  0  0  0  0  0  0  0  0  0  0
    7.2884    9.5218   -8.1394 N   0  0  0  0  0  0  0  0  0  0  0  0
    5.9985    9.1515   -8.0620 C   0  0  0  0  0  0  0  0  0  0  0  0
    7.9031    9.3573   -7.3680 H   0  0  0  0  0  0  0  0  0  0  0  0
    7.6334    9.9618   -8.9686 H   0  0  0  0  0  0  0  0  0  0  0  0
    0.7083   -0.2850   -4.7016 O   0  0  0  0  0  0  0  0  0  0  0  0
   -0.3584   -0.5606   -3.8252 C   0  0  0  0  0  0  0  0  0  0  0  0
   -3.1351    1.3803   -0.5222 O   0  0  0  0  0  0  0  0  0  0  0  0
   -0.4911    1.3037   -0.7782 O   0  0  0  0  0  0  0  0  0  0  0  0
   -1.7565    1.3999   -3.7908 O   0  0  0  0  0  0  0  0  0  0  0  0
   -2.6720    0.8476   -1.7283 C   0  0  0  0  0  0  0  0  0  0  0  0
   -1.1929    0.4814   -1.6833 C   0  0  0  0  0  0  0  0  0  0  0  0
   -2.6959    1.8639   -2.8311 C   0  0  0  0  0  0  0  0  0  0  0  0
   -0.7082    0.7338   -3.0999 C   0  0  0  0  0  0  0  0  0  0  0  0
   -4.1066    1.6020   -0.6069 H   0  0  0  0  0  0  0  0  0  0  0  0
    0.2802    0.7953   -0.3952 H   0  0  0  0  0  0  0  0  0  0  0  0
   -8.4859    1.4854   -4.4620 N   0  0  0  0  0  0  0  0  0  0  0  0
   -7.6008    0.3427   -2.6421 N   0  0  0  0  0  0  0  0  0  0  0  0
   -5.3334    0.5034   -2.0111 N   0  0  0  0  0  0  0  0  0  0  0  0
   -5.6402    2.5978   -4.8284 N   0  0  0  0  0  0  0  0  0  0  0  0
   -4.0052    1.9906   -3.4653 N   0  0  0  0  0  0  0  0  0  0  0  0
   -6.5740    0.0202   -1.8454 C   0  0  0  0  0  0  0  0  0  0  0  0
   -4.3469    2.7293   -4.5468 C   0  0  0  0  0  0  0  0  0  0  0  0
   -7.4292    1.1903   -3.6667 C   0  0  0  0  0  0  0  0  0  0  0  0
   -5.1177    1.3555   -3.0367 C   0  0  0  0  0  0  0  0  0  0  0  0
   -6.1445    1.7392   -3.9051 C   0  0  0  0  0  0  0  0  0  0  0  0
   -8.3730    2.1159   -5.2299 H   0  0  0  0  0  0  0  0  0  0  0  0
   -9.3786    1.0728   -4.2809 H   0  0  0  0  0  0  0  0  0  0  0  0
  5  6  2  0
  5  7  1  0
  5  4  1  0
  5  8  1  0
  1  2  2  0
  1  3  1  0
  1  4  1  0
  1 30  1  0
 25 27  2  0
 10 13  1  0
 32 35  1  0
 11 14  1  0
 33 36  1  0
  8  9  1  0
 30 31  1  0
 12 15  1  0
 12 16  1  0
 34 37  1  0
 34 38  1  0
 26 27  1  0
 41 48  1  0
 42 46  1  0
 42 48  2  0
 43 46  2  0
 43 49  1  0
 44 47  2  0
 44 50  1  0
 19 20  2  0
 19 21  1  0
 19 15  1  0
 45 47  1  0
 45 37  1  0
 45 49  1  0
  9 16  1  0
 31 38  1  0
 20 22  1  0
 21 24  2  0
 22 23  2  0
 23 24  1  0
 27 24  1  0
 13 14  1  0
 13 15  1  0
 35 36  1  0
 35 37  1  0
 14 16  1  0
 36 38  1  0
 48 50  1  0
 49 50  2  0
 10 17  1  0
 32 39  1  0
 11 18  1  0
 33 40  1  0
 26 28  1  0
 26 29  1  0
 41 51  1  0
 41 52  1  0
M  CHG 1   3  -1
M  CHG 1   7  -1
M  CHG 1  19   1
M  END
> <minimizedAffinity>
-10.91056

> <CNNscore>
0.1243044809

> <CNNaffinity>
5.0397033691

> <CNN_VS>
0.6264576912

> <CNNaffinity_variance>
0.5405334234

$$$$
NAD_B_1


 52 56  0  0  0  0  0  0  0  0999 V2000
    3.1964    0.2762   -5.5063 P   0  0  0  0  0  0  0  0  0  0  0  0
    2.8613    1.5483   -6.1925 O   0  0  0  0  0  0  0  0  0  0  0  0
    3.6329   -0.8656   -6.3492 O   0  0  0  0  0  0  0  0  0  0  0  0
    4.3148    0.6396   -4.4352 O   0  0  0  0  0  0  0  0  0  0  0  0
    5.8777    0.8925   -4.7023 P   0  0  0  0  0  0  0  0  0  0  0  0
    6.1501    0.6573   -6.1529 O   0  0  0  0  0  0  0  0  0  0  0  0
    6.6973    0.1643   -3.7019 O   0  0  0  0  0  0  0  0  0  0  0  0
    5.9658    2.4851   -4.4482 O   0  0  0  0  0  0  0  0  0  0  0  0
    5.0189    3.3484   -5.0518 C   0  0  0  0  0  0  0  0  0  0  0  0
    7.6125    6.9118   -6.1605 O   0  0  0  0  0  0  0  0  0  0  0  0
    7.8176    4.8150   -4.5490 O   0  0  0  0  0  0  0  0  0  0  0  0
    4.6711    5.5119   -6.0443 O   0  0  0  0  0  0  0  0  0  0  0  0
    6.5345    6.7480   -5.2527 C   0  0  0  0  0  0  0  0  0  0  0  0
    6.5249    5.3712   -4.6706 C   0  0  0  0  0  0  0  0  0  0  0  0
    5.2340    6.8102   -6.0239 C   0  0  0  0  0  0  0  0  0  0  0  0
    5.6643    4.5724   -5.6344 C   0  0  0  0  0  0  0  0  0  0  0  0
    7.5244    6.2504   -6.9054 H   0  0  0  0  0  0  0  0  0  0  0  0
    7.7503    3.8979   -4.1559 H   0  0  0  0  0  0  0  0  0  0  0  0
    4.2731    7.7326   -5.4176 N   0  0  0  0  0  0  0  0  0  0  0  0
    3.6502    8.6903   -6.1821 C   0  0  0  0  0  0  0  0  0  0  0  0
    4.0041    7.6399   -4.0755 C   0  0  0  0  0  0  0  0  0  0  0  0
    2.7590    9.5643   -5.6197 C   0  0  0  0  0  0  0  0  0  0  0  0
    2.4657    9.4973   -4.2713 C   0  0  0  0  0  0  0  0  0  0  0  0
    3.1044    8.5197   -3.4853 C   0  0  0  0  0  0  0  0  0  0  0  0
    2.8673    7.3397   -1.4508 O   0  0  0  0  0  0  0  0  0  0  0  0
    2.4250    9.5649   -1.3734 N   0  0  0  0  0  0  0  0  0  0  0  0
    2.8024    8.4477   -2.0187 C   0  0  0  0  0  0  0  0  0  0  0  0
    2.3851   10.4359   -1.8631 H   0  0  0  0  0  0  0  0  0  0  0  0
    2.1842    9.5251   -0.4036 H   0  0  0  0  0  0  0  0  0  0  0  0
    1.9538   -0.2438   -4.6280 O   0  0  0  0  0  0  0  0  0  0  0  0
    2.1028   -0.9379   -3.4123 C   0  0  0  0  0  0  0  0  0  0  0  0
   -1.0890   -0.5435    0.0582 O   0  0  0  0  0  0  0  0  0  0  0  0
    1.5635   -0.3826    0.0775 O   0  0  0  0  0  0  0  0  0  0  0  0
    0.5401    0.7883   -2.7978 O   0  0  0  0  0  0  0  0  0  0  0  0
   -0.4858   -0.5529   -1.2024 C   0  0  0  0  0  0  0  0  0  0  0  0
    1.0112   -0.8332   -1.1390 C   0  0  0  0  0  0  0  0  0  0  0  0
   -0.5103    0.8039   -1.8411 C   0  0  0  0  0  0  0  0  0  0  0  0
    1.5840   -0.0364   -2.2978 C   0  0  0  0  0  0  0  0  0  0  0  0
   -2.0662   -0.3559   -0.0413 H   0  0  0  0  0  0  0  0  0  0  0  0
    2.3432   -0.9586    0.3231 H   0  0  0  0  0  0  0  0  0  0  0  0
   -6.2404    1.8999   -3.3549 N   0  0  0  0  0  0  0  0  0  0  0  0
   -5.5547    1.5162   -1.1677 N   0  0  0  0  0  0  0  0  0  0  0  0
   -3.3076    1.0934   -0.5877 N   0  0  0  0  0  0  0  0  0  0  0  0
   -3.2708    1.5488   -4.0818 N   0  0  0  0  0  0  0  0  0  0  0  0
   -1.7706    1.0958   -2.5186 N   0  0  0  0  0  0  0  0  0  0  0  0
   -4.6007    1.2506   -0.2664 C   0  0  0  0  0  0  0  0  0  0  0  0
   -1.9866    1.3024   -3.8387 C   0  0  0  0  0  0  0  0  0  0  0  0
   -5.2493    1.6443   -2.4669 C   0  0  0  0  0  0  0  0  0  0  0  0
   -2.9598    1.2080   -1.8878 C   0  0  0  0  0  0  0  0  0  0  0  0
   -3.9030    1.4886   -2.8815 C   0  0  0  0  0  0  0  0  0  0  0  0
   -6.0276    1.9980   -4.3271 H   0  0  0  0  0  0  0  0  0  0  0  0
   -7.1845    1.9904   -3.0381 H   0  0  0  0  0  0  0  0  0  0  0  0
  5  6  2  0
  5  7  1  0
  5  4  1  0
  5  8  1  0
  1  2  2  0
  1  3  1  0
  1  4  1  0
  1 30  1  0
 25 27  2  0
 10 13  1  0
 32 35  1  0
 11 14  1  0
 33 36  1  0
  8  9  1  0
 30 31  1  0
 12 15  1  0
 12 16  1  0
 34 37  1  0
 34 38  1  0
 26 27  1  0
 41 48  1  0
 42 46  1  0
 42 48  2  0
 43 46  2  0
 43 49  1  0
 44 47  2  0
 44 50  1  0
 19 20  2  0
 19 21  1  0
 19 15  1  0
 45 47  1  0
 45 37  1  0
 45 49  1  0
  9 16  1  0
 31 38  1  0
 20 22  1  0
 21 24  2  0
 22 23  2  0
 23 24  1  0
 27 24  1  0
 13 14  1  0
 13 15  1  0
 35 36  1  0
 35 37  1  0
 14 16  1  0
 36 38  1  0
 48 50  1  0
 49 50  2  0
 10 17  1  0
 32 39  1  0
 11 18  1  0
 33 40  1  0
 26 28  1  0
 26 29  1  0
 41 51  1  0
 41 52  1  0
M  CHG 1   3  -1
M  CHG 1   7  -1
M  CHG 1  19   1
M  END
> <minimizedAffinity>
-8.18025

> <CNNscore>
0.1093085185

> <CNNaffinity>
5.0826849937

> <CNN_VS>
0.5555807948

> <CNNaffinity_variance>
0.4047058523

$$$$
NAD_B_1


 52 56  0  0  0  0  0  0  0  0999 V2000
   -3.0774    1.2472   -1.7468 P   0  0  0  0  0  0  0  0  0  0  0  0
   -3.1269    0.9680   -0.2905 O   0  0  0  0  0  0  0  0  0  0  0  0
   -2.6929    2.6169   -2.1718 O   0  0  0  0  0  0  0  0  0  0  0  0
   -2.0823    0.1706   -2.3641 O   0  0  0  0  0  0  0  0  0  0  0  0
   -0.5123    0.0094   -2.0689 P   0  0  0  0  0  0  0  0  0  0  0  0
   -0.2388   -1.4257   -1.7537 O   0  0  0  0  0  0  0  0  0  0  0  0
   -0.0589    1.0437   -1.1059 O   0  0  0  0  0  0  0  0  0  0  0  0
    0.0948    0.3039   -3.5363 O   0  0  0  0  0  0  0  0  0  0  0  0
    0.4205   -0.7755   -4.3938 C   0  0  0  0  0  0  0  0  0  0  0  0
    4.9235   -1.2785   -4.0425 O   0  0  0  0  0  0  0  0  0  0  0  0
    2.8359   -1.4856   -2.4193 O   0  0  0  0  0  0  0  0  0  0  0  0
    2.3524   -0.0741   -5.6436 O   0  0  0  0  0  0  0  0  0  0  0  0
    4.0741   -0.1424   -4.0134 C   0  0  0  0  0  0  0  0  0  0  0  0
    2.7510   -0.4746   -3.4021 C   0  0  0  0  0  0  0  0  0  0  0  0
    3.7173    0.2360   -5.4343 C   0  0  0  0  0  0  0  0  0  0  0  0
    1.9032   -0.9166   -4.5827 C   0  0  0  0  0  0  0  0  0  0  0  0
    4.4942   -2.0019   -4.5832 H   0  0  0  0  0  0  0  0  0  0  0  0
    1.9254   -1.6656   -2.0468 H   0  0  0  0  0  0  0  0  0  0  0  0
    3.9241    1.6607   -5.6976 N   0  0  0  0  0  0  0  0  0  0  0  0
    5.0127    2.3147   -5.1714 C   0  0  0  0  0  0  0  0  0  0  0  0
    3.0168    2.3425   -6.4683 C   0  0  0  0  0  0  0  0  0  0  0  0
    5.2065    3.6500   -5.4035 C   0  0  0  0  0  0  0  0  0  0  0  0
    4.3118    4.3656   -6.1757 C   0  0  0  0  0  0  0  0  0  0  0  0
    3.1945    3.6991   -6.7132 C   0  0  0  0  0  0  0  0  0  0  0  0
    1.8690    5.6054   -7.1569 O   0  0  0  0  0  0  0  0  0  0  0  0
    1.6934    3.8978   -8.6423 N   0  0  0  0  0  0  0  0  0  0  0  0
    2.2112    4.4700   -7.5416 C   0  0  0  0  0  0  0  0  0  0  0  0
    1.9931    2.9849   -8.9194 H   0  0  0  0  0  0  0  0  0  0  0  0
    1.0084    4.3850   -9.1841 H   0  0  0  0  0  0  0  0  0  0  0  0
   -4.4936    0.9272   -2.4384 O   0  0  0  0  0  0  0  0  0  0  0  0
   -5.4967    1.8961   -2.6308 C   0  0  0  0  0  0  0  0  0  0  0  0
   -7.6756   -1.9933   -4.2157 O   0  0  0  0  0  0  0  0  0  0  0  0
   -7.4993   -0.9405   -1.7820 O   0  0  0  0  0  0  0  0  0  0  0  0
   -7.5023    1.5371   -3.9145 O   0  0  0  0  0  0  0  0  0  0  0  0
   -7.0741   -0.7332   -4.1576 C   0  0  0  0  0  0  0  0  0  0  0  0
   -6.6611   -0.3403   -2.7438 C   0  0  0  0  0  0  0  0  0  0  0  0
   -8.0400    0.3609   -4.5029 C   0  0  0  0  0  0  0  0  0  0  0  0
   -6.8333    1.1681   -2.7161 C   0  0  0  0  0  0  0  0  0  0  0  0
   -7.9256   -2.2000   -5.1616 H   0  0  0  0  0  0  0  0  0  0  0  0
   -6.9832   -1.0940   -0.9393 H   0  0  0  0  0  0  0  0  0  0  0  0
   -7.7182    2.2438  -10.2194 N   0  0  0  0  0  0  0  0  0  0  0  0
   -6.4894    3.2014   -8.4947 N   0  0  0  0  0  0  0  0  0  0  0  0
   -6.6206    2.4516   -6.2619 N   0  0  0  0  0  0  0  0  0  0  0  0
   -8.8215    0.3600   -8.0505 N   0  0  0  0  0  0  0  0  0  0  0  0
   -8.1818    0.5672   -5.9416 N   0  0  0  0  0  0  0  0  0  0  0  0
   -6.1338    3.2715   -7.2057 C   0  0  0  0  0  0  0  0  0  0  0  0
   -8.9632   -0.1105   -6.8146 C   0  0  0  0  0  0  0  0  0  0  0  0
   -7.3694    2.2793   -8.9104 C   0  0  0  0  0  0  0  0  0  0  0  0
   -7.5155    1.5128   -6.6392 C   0  0  0  0  0  0  0  0  0  0  0  0
   -7.9284    1.3797   -7.9686 C   0  0  0  0  0  0  0  0  0  0  0  0
   -8.3734    1.5616  -10.5439 H   0  0  0  0  0  0  0  0  0  0  0  0
   -7.3203    2.8997  -10.8608 H   0  0  0  0  0  0  0  0  0  0  0  0
  5  6  2  0
  5  7  1  0
  5  4  1  0
  5  8  1  0
  1  2  2  0
  1  3  1  0
  1  4  1  0
  1 30  1  0
 25 27  2  0
 10 13  1  0
 32 35  1  0
 11 14  1  0
 33 36  1  0
  8  9  1  0
 30 31  1  0
 12 15  1  0
 12 16  1  0
 34 37  1  0
 34 38  1  0
 26 27  1  0
 41 48  1  0
 42 46  1  0
 42 48  2  0
 43 46  2  0
 43 49  1  0
 44 47  2  0
 44 50  1  0
 19 20  2  0
 19 21  1  0
 19 15  1  0
 45 47  1  0
 45 37  1  0
 45 49  1  0
  9 16  1  0
 31 38  1  0
 20 22  1  0
 21 24  2  0
 22 23  2  0
 23 24  1  0
 27 24  1  0
 13 14  1  0
 13 15  1  0
 35 36  1  0
 35 37  1  0
 14 16  1  0
 36 38  1  0
 48 50  1  0
 49 50  2  0
 10 17  1  0
 32 39  1  0
 11 18  1  0
 33 40  1  0
 26 28  1  0
 26 29  1  0
 41 51  1  0
 41 52  1  0
M  CHG 1   3  -1
M  CHG 1   7  -1
M  CHG 1  19   1
M  END
> <minimizedAffinity>
-9.83254

> <CNNscore>
0.1088186651

> <CNNaffinity>
4.8248748779

> <CNN_VS>
0.5250364542

> <CNNaffinity_variance>
1.4620138407

$$$$
