
     RDKit          3D

 41 41  0  0  0  0  0  0  0  0999 V2000
    6.8061   -1.1047    2.1382 C   0  0  0  0  0  0  0  0  0  0  0  0
    5.8493    0.0592    1.9014 C   0  0  0  0  0  0  0  0  0  0  0  0
    4.5360   -0.4591    1.3601 C   0  0  0  0  0  0  0  0  0  0  0  0
    3.7811   -0.9326    2.1837 O   0  0  0  0  0  0  0  0  0  0  0  0
    4.2370   -0.3734   -0.0696 C   0  0  0  0  0  0  0  0  0  0  0  0
    2.9217   -0.8843   -0.5145 C   0  0  0  0  0  0  0  0  0  0  0  0
    1.7280   -0.2626    0.0314 C   0  0  0  0  0  0  0  0  0  0  0  0
    1.7429    0.6825    0.8434 O   0  0  0  0  0  0  0  0  0  0  0  0
    0.4272   -0.7829   -0.3999 C   0  0  0  0  0  0  0  0  0  0  0  0
   -0.7121   -0.2688    0.0469 C   0  0  0  0  0  0  0  0  0  0  0  0
   -2.0516   -0.7628   -0.3604 C   0  0  0  0  0  0  0  0  0  0  0  0
   -2.8409    0.3470   -1.0497 C   0  0  0  0  0  0  0  0  0  0  0  0
   -2.9913    1.4874   -0.0642 C   0  0  0  0  0  0  0  0  0  0  0  0
   -4.1058    1.1228    0.8885 C   0  0  0  0  0  0  0  0  0  0  0  0
   -5.4180    1.3221    0.1490 C   0  0  0  0  0  0  0  0  0  0  0  0
   -5.3226    0.7314   -1.2171 C   0  0  0  0  0  0  0  0  0  0  0  0
   -4.1844   -0.2311   -1.4122 C   0  0  0  0  0  0  0  0  0  0  0  0
    7.6398   -0.8101    2.8069 H   0  0  0  0  0  0  0  0  0  0  0  0
    6.2357   -1.9283    2.6708 H   0  0  0  0  0  0  0  0  0  0  0  0
    7.1959   -1.5485    1.2179 H   0  0  0  0  0  0  0  0  0  0  0  0
    5.6164    0.5758    2.8431 H   0  0  0  0  0  0  0  0  0  0  0  0
    6.3218    0.7718    1.1991 H   0  0  0  0  0  0  0  0  0  0  0  0
    4.4021    0.6795   -0.4070 H   0  0  0  0  0  0  0  0  0  0  0  0
    5.0194   -0.9577   -0.6379 H   0  0  0  0  0  0  0  0  0  0  0  0
    2.8687   -0.7363   -1.6402 H   0  0  0  0  0  0  0  0  0  0  0  0
    2.8404   -1.9871   -0.2992 H   0  0  0  0  0  0  0  0  0  0  0  0
    0.3411   -1.6005   -1.1008 H   0  0  0  0  0  0  0  0  0  0  0  0
   -0.6135    0.5627    0.7583 H   0  0  0  0  0  0  0  0  0  0  0  0
   -1.9754   -1.6663   -0.9833 H   0  0  0  0  0  0  0  0  0  0  0  0
   -2.5997   -1.0312    0.5826 H   0  0  0  0  0  0  0  0  0  0  0  0
   -2.2912    0.6756   -1.9626 H   0  0  0  0  0  0  0  0  0  0  0  0
   -3.2654    2.4468   -0.5804 H   0  0  0  0  0  0  0  0  0  0  0  0
   -2.0491    1.6520    0.5075 H   0  0  0  0  0  0  0  0  0  0  0  0
   -4.0726    1.7336    1.8163 H   0  0  0  0  0  0  0  0  0  0  0  0
   -4.0578    0.0725    1.2074 H   0  0  0  0  0  0  0  0  0  0  0  0
   -6.2653    0.9207    0.7525 H   0  0  0  0  0  0  0  0  0  0  0  0
   -5.5998    2.4266    0.1279 H   0  0  0  0  0  0  0  0  0  0  0  0
   -5.2727    1.5694   -1.9642 H   0  0  0  0  0  0  0  0  0  0  0  0
   -6.2663    0.1366   -1.3769 H   0  0  0  0  0  0  0  0  0  0  0  0
   -4.1529   -0.4842   -2.5007 H   0  0  0  0  0  0  0  0  0  0  0  0
   -4.4022   -1.1635   -0.8549 H   0  0  0  0  0  0  0  0  0  0  0  0
  1  2  1  0
  2  3  1  0
  3  4  2  0
  3  5  1  0
  5  6  1  0
  6  7  1  0
  7  8  2  0
  7  9  1  0
  9 10  2  0
 10 11  1  0
 11 12  1  0
 12 13  1  0
 13 14  1  0
 14 15  1  0
 15 16  1  0
 16 17  1  0
 17 12  1  0
  1 18  1  0
  1 19  1  0
  1 20  1  0
  2 21  1  0
  2 22  1  0
  5 23  1  0
  5 24  1  0
  6 25  1  0
  6 26  1  0
  9 27  1  0
 10 28  1  0
 11 29  1  0
 11 30  1  0
 12 31  1  0
 13 32  1  0
 13 33  1  0
 14 34  1  0
 14 35  1  0
 15 36  1  0
 15 37  1  0
 16 38  1  0
 16 39  1  0
 17 40  1  0
 17 41  1  0
M  END
$$$$

     RDKit          3D

 41 41  0  0  0  0  0  0  0  0999 V2000
    7.1620    4.3680   -0.9342 C   0  0  0  0  0  0  0  0  0  0  0  0
    6.2732    3.2554   -1.4374 C   0  0  0  0  0  0  0  0  0  0  0  0
    5.0042    3.2451   -0.7011 C   0  0  0  0  0  0  0  0  0  0  0  0
    4.8246    4.0870    0.1794 O   0  0  0  0  0  0  0  0  0  0  0  0
    3.9693    2.2488   -1.0135 C   0  0  0  0  0  0  0  0  0  0  0  0
    2.6938    2.4360   -0.2405 C   0  0  0  0  0  0  0  0  0  0  0  0
    1.7042    1.3851   -0.6116 C   0  0  0  0  0  0  0  0  0  0  0  0
    2.0675    0.1788   -0.4911 O   0  0  0  0  0  0  0  0  0  0  0  0
    0.3719    1.6556   -1.0975 C   0  0  0  0  0  0  0  0  0  0  0  0
   -0.4286    0.6629   -1.3980 C   0  0  0  0  0  0  0  0  0  0  0  0
   -1.7844    0.8716   -1.8955 C   0  0  0  0  0  0  0  0  0  0  0  0
   -2.8808    0.3004   -1.0523 C   0  0  0  0  0  0  0  0  0  0  0  0
   -2.9726    0.8355    0.3344 C   0  0  0  0  0  0  0  0  0  0  0  0
   -4.0955    1.8389    0.5046 C   0  0  0  0  0  0  0  0  0  0  0  0
   -5.4378    1.2524    0.1302 C   0  0  0  0  0  0  0  0  0  0  0  0
   -5.2876    0.0952   -0.8175 C   0  0  0  0  0  0  0  0  0  0  0  0
   -4.1887    0.4572   -1.8050 C   0  0  0  0  0  0  0  0  0  0  0  0
    8.2268    4.0604   -1.1311 H   0  0  0  0  0  0  0  0  0  0  0  0
    7.0111    4.5722    0.1322 H   0  0  0  0  0  0  0  0  0  0  0  0
    6.9968    5.2980   -1.5227 H   0  0  0  0  0  0  0  0  0  0  0  0
    6.0286    3.4683   -2.5174 H   0  0  0  0  0  0  0  0  0  0  0  0
    6.7940    2.2823   -1.4664 H   0  0  0  0  0  0  0  0  0  0  0  0
    4.3583    1.2478   -0.7776 H   0  0  0  0  0  0  0  0  0  0  0  0
    3.7004    2.3435   -2.0977 H   0  0  0  0  0  0  0  0  0  0  0  0
    2.2687    3.4536   -0.3196 H   0  0  0  0  0  0  0  0  0  0  0  0
    2.9039    2.2899    0.8489 H   0  0  0  0  0  0  0  0  0  0  0  0
    0.0691    2.6934   -1.2009 H   0  0  0  0  0  0  0  0  0  0  0  0
   -0.0684   -0.3445   -1.2717 H   0  0  0  0  0  0  0  0  0  0  0  0
   -1.9267    1.9594   -2.0983 H   0  0  0  0  0  0  0  0  0  0  0  0
   -1.9195    0.4026   -2.9219 H   0  0  0  0  0  0  0  0  0  0  0  0
   -2.7516   -0.8238   -0.9510 H   0  0  0  0  0  0  0  0  0  0  0  0
   -2.0492    1.3318    0.6918 H   0  0  0  0  0  0  0  0  0  0  0  0
   -3.1836    0.0263    1.0963 H   0  0  0  0  0  0  0  0  0  0  0  0
   -3.9709    2.7404   -0.1053 H   0  0  0  0  0  0  0  0  0  0  0  0
   -4.1136    2.1204    1.5800 H   0  0  0  0  0  0  0  0  0  0  0  0
   -6.0202    0.9919    1.0344 H   0  0  0  0  0  0  0  0  0  0  0  0
   -6.0726    2.0124   -0.4157 H   0  0  0  0  0  0  0  0  0  0  0  0
   -6.2489   -0.1430   -1.3140 H   0  0  0  0  0  0  0  0  0  0  0  0
   -4.9574   -0.7713   -0.2164 H   0  0  0  0  0  0  0  0  0  0  0  0
   -4.3300    1.5038   -2.1164 H   0  0  0  0  0  0  0  0  0  0  0  0
   -4.2136   -0.2598   -2.6660 H   0  0  0  0  0  0  0  0  0  0  0  0
  1  2  1  0
  2  3  1  0
  3  4  2  0
  3  5  1  0
  5  6  1  0
  6  7  1  0
  7  8  2  0
  7  9  1  0
  9 10  2  0
 10 11  1  0
 11 12  1  0
 12 13  1  0
 13 14  1  0
 14 15  1  0
 15 16  1  0
 16 17  1  0
 17 12  1  0
  1 18  1  0
  1 19  1  0
  1 20  1  0
  2 21  1  0
  2 22  1  0
  5 23  1  0
  5 24  1  0
  6 25  1  0
  6 26  1  0
  9 27  1  0
 10 28  1  0
 11 29  1  0
 11 30  1  0
 12 31  1  0
 13 32  1  0
 13 33  1  0
 14 34  1  0
 14 35  1  0
 15 36  1  0
 15 37  1  0
 16 38  1  0
 16 39  1  0
 17 40  1  0
 17 41  1  0
M  END
$$$$

     RDKit          3D

 41 41  0  0  0  0  0  0  0  0999 V2000
    5.3610   -0.1570    2.6237 C   0  0  0  0  0  0  0  0  0  0  0  0
    4.5007    0.4308    1.5220 C   0  0  0  0  0  0  0  0  0  0  0  0
    3.5480   -0.5676    0.9747 C   0  0  0  0  0  0  0  0  0  0  0  0
    2.5315   -0.8090    1.5949 O   0  0  0  0  0  0  0  0  0  0  0  0
    3.8830   -1.2274   -0.3114 C   0  0  0  0  0  0  0  0  0  0  0  0
    2.7322   -2.2110   -0.6947 C   0  0  0  0  0  0  0  0  0  0  0  0
    1.4793   -1.4744   -0.8457 C   0  0  0  0  0  0  0  0  0  0  0  0
    1.6078   -0.1952   -0.6440 O   0  0  0  0  0  0  0  0  0  0  0  0
    0.1845   -1.9639   -1.1731 C   0  0  0  0  0  0  0  0  0  0  0  0
   -0.9061   -1.2771   -1.3027 C   0  0  0  0  0  0  0  0  0  0  0  0
   -1.1442    0.1279   -1.1636 C   0  0  0  0  0  0  0  0  0  0  0  0
   -2.1481    0.4660   -0.0604 C   0  0  0  0  0  0  0  0  0  0  0  0
   -3.4416   -0.2220   -0.4359 C   0  0  0  0  0  0  0  0  0  0  0  0
   -4.5620    0.7965   -0.6040 C   0  0  0  0  0  0  0  0  0  0  0  0
   -4.7374    1.4932    0.7269 C   0  0  0  0  0  0  0  0  0  0  0  0
   -3.4530    2.1864    1.0651 C   0  0  0  0  0  0  0  0  0  0  0  0
   -2.3688    1.9424    0.0548 C   0  0  0  0  0  0  0  0  0  0  0  0
    5.8446    0.6326    3.2367 H   0  0  0  0  0  0  0  0  0  0  0  0
    4.6886   -0.7194    3.3098 H   0  0  0  0  0  0  0  0  0  0  0  0
    6.1503   -0.8189    2.2150 H   0  0  0  0  0  0  0  0  0  0  0  0
    5.1510    0.7953    0.6720 H   0  0  0  0  0  0  0  0  0  0  0  0
    3.9362    1.3286    1.8518 H   0  0  0  0  0  0  0  0  0  0  0  0
    3.9906   -0.4654   -1.0895 H   0  0  0  0  0  0  0  0  0  0  0  0
    4.7747   -1.8578   -0.1630 H   0  0  0  0  0  0  0  0  0  0  0  0
    2.6372   -2.9303    0.1353 H   0  0  0  0  0  0  0  0  0  0  0  0
    3.0457   -2.7050   -1.6482 H   0  0  0  0  0  0  0  0  0  0  0  0
    0.1365   -3.0908   -1.3328 H   0  0  0  0  0  0  0  0  0  0  0  0
   -1.8045   -1.8870   -1.5656 H   0  0  0  0  0  0  0  0  0  0  0  0
   -0.1780    0.6250   -0.7484 H   0  0  0  0  0  0  0  0  0  0  0  0
   -1.4003    0.7478   -2.0000 H   0  0  0  0  0  0  0  0  0  0  0  0
   -1.7918    0.0846    0.9142 H   0  0  0  0  0  0  0  0  0  0  0  0
   -3.3762   -0.7690   -1.3992 H   0  0  0  0  0  0  0  0  0  0  0  0
   -3.7324   -0.9867    0.3218 H   0  0  0  0  0  0  0  0  0  0  0  0
   -5.4607    0.2346   -0.9085 H   0  0  0  0  0  0  0  0  0  0  0  0
   -4.2806    1.5074   -1.3957 H   0  0  0  0  0  0  0  0  0  0  0  0
   -5.5976    2.2107    0.6384 H   0  0  0  0  0  0  0  0  0  0  0  0
   -5.0129    0.7113    1.4636 H   0  0  0  0  0  0  0  0  0  0  0  0
   -3.6714    3.2923    1.1425 H   0  0  0  0  0  0  0  0  0  0  0  0
   -3.1177    1.8729    2.0790 H   0  0  0  0  0  0  0  0  0  0  0  0
   -1.4326    2.4045    0.4762 H   0  0  0  0  0  0  0  0  0  0  0  0
   -2.5652    2.4441   -0.8948 H   0  0  0  0  0  0  0  0  0  0  0  0
  1  2  1  0
  2  3  1  0
  3  4  2  0
  3  5  1  0
  5  6  1  0
  6  7  1  0
  7  8  2  0
  7  9  1  0
  9 10  2  0
 10 11  1  0
 11 12  1  0
 12 13  1  0
 13 14  1  0
 14 15  1  0
 15 16  1  0
 16 17  1  0
 17 12  1  0
  1 18  1  0
  1 19  1  0
  1 20  1  0
  2 21  1  0
  2 22  1  0
  5 23  1  0
  5 24  1  0
  6 25  1  0
  6 26  1  0
  9 27  1  0
 10 28  1  0
 11 29  1  0
 11 30  1  0
 12 31  1  0
 13 32  1  0
 13 33  1  0
 14 34  1  0
 14 35  1  0
 15 36  1  0
 15 37  1  0
 16 38  1  0
 16 39  1  0
 17 40  1  0
 17 41  1  0
M  END
$$$$

     RDKit          3D

 41 41  0  0  0  0  0  0  0  0999 V2000
    2.7768   -4.7276   -4.2017 C   0  0  0  0  0  0  0  0  0  0  0  0
    3.2844   -3.3162   -4.2931 C   0  0  0  0  0  0  0  0  0  0  0  0
    2.1280   -2.3605   -4.4204 C   0  0  0  0  0  0  0  0  0  0  0  0
    0.9981   -2.8092   -4.4348 O   0  0  0  0  0  0  0  0  0  0  0  0
    2.3405   -0.9173   -4.5258 C   0  0  0  0  0  0  0  0  0  0  0  0
    2.4275   -0.1655   -3.2462 C   0  0  0  0  0  0  0  0  0  0  0  0
    1.1753   -0.2509   -2.4020 C   0  0  0  0  0  0  0  0  0  0  0  0
    0.2519   -0.8871   -2.9089 O   0  0  0  0  0  0  0  0  0  0  0  0
    1.2351    0.4181   -1.1318 C   0  0  0  0  0  0  0  0  0  0  0  0
    0.2459    0.4356   -0.2855 C   0  0  0  0  0  0  0  0  0  0  0  0
   -1.0237   -0.2136   -0.5201 C   0  0  0  0  0  0  0  0  0  0  0  0
   -2.2014    0.7515   -0.5284 C   0  0  0  0  0  0  0  0  0  0  0  0
   -3.4474   -0.0540   -0.7796 C   0  0  0  0  0  0  0  0  0  0  0  0
   -4.5023    0.2977    0.2325 C   0  0  0  0  0  0  0  0  0  0  0  0
   -4.7348    1.7930    0.2042 C   0  0  0  0  0  0  0  0  0  0  0  0
   -3.4878    2.4202    0.8187 C   0  0  0  0  0  0  0  0  0  0  0  0
   -2.3372    1.4542    0.7992 C   0  0  0  0  0  0  0  0  0  0  0  0
    3.3131   -5.4487   -4.8187 H   0  0  0  0  0  0  0  0  0  0  0  0
    2.8031   -5.1050   -3.1569 H   0  0  0  0  0  0  0  0  0  0  0  0
    1.7070   -4.7384   -4.5038 H   0  0  0  0  0  0  0  0  0  0  0  0
    3.9745   -3.2537   -5.1455 H   0  0  0  0  0  0  0  0  0  0  0  0
    3.7861   -3.0829   -3.3187 H   0  0  0  0  0  0  0  0  0  0  0  0
    3.3387   -0.7814   -5.0357 H   0  0  0  0  0  0  0  0  0  0  0  0
    1.6213   -0.4616   -5.2479 H   0  0  0  0  0  0  0  0  0  0  0  0
    3.2915   -0.6090   -2.6681 H   0  0  0  0  0  0  0  0  0  0  0  0
    2.7077    0.8961   -3.3883 H   0  0  0  0  0  0  0  0  0  0  0  0
    2.1913    0.9435   -0.8803 H   0  0  0  0  0  0  0  0  0  0  0  0
    0.4222    0.9956    0.6733 H   0  0  0  0  0  0  0  0  0  0  0  0
   -1.2197   -0.8488    0.4256 H   0  0  0  0  0  0  0  0  0  0  0  0
   -1.1462   -0.9174   -1.3196 H   0  0  0  0  0  0  0  0  0  0  0  0
   -2.0512    1.4897   -1.3566 H   0  0  0  0  0  0  0  0  0  0  0  0
   -3.8765    0.1809   -1.7947 H   0  0  0  0  0  0  0  0  0  0  0  0
   -3.2123   -1.1561   -0.7607 H   0  0  0  0  0  0  0  0  0  0  0  0
   -5.4758   -0.2136    0.0089 H   0  0  0  0  0  0  0  0  0  0  0  0
   -4.2570    0.0136    1.2596 H   0  0  0  0  0  0  0  0  0  0  0  0
   -4.8334    2.0978   -0.8555 H   0  0  0  0  0  0  0  0  0  0  0  0
   -5.6337    2.0944    0.7571 H   0  0  0  0  0  0  0  0  0  0  0  0
   -3.7438    2.5996    1.8855 H   0  0  0  0  0  0  0  0  0  0  0  0
   -3.2798    3.3875    0.3531 H   0  0  0  0  0  0  0  0  0  0  0  0
   -2.4108    0.7646    1.6417 H   0  0  0  0  0  0  0  0  0  0  0  0
   -1.4105    2.0970    0.8917 H   0  0  0  0  0  0  0  0  0  0  0  0
  1  2  1  0
  2  3  1  0
  3  4  2  0
  3  5  1  0
  5  6  1  0
  6  7  1  0
  7  8  2  0
  7  9  1  0
  9 10  2  0
 10 11  1  0
 11 12  1  0
 12 13  1  0
 13 14  1  0
 14 15  1  0
 15 16  1  0
 16 17  1  0
 17 12  1  0
  1 18  1  0
  1 19  1  0
  1 20  1  0
  2 21  1  0
  2 22  1  0
  5 23  1  0
  5 24  1  0
  6 25  1  0
  6 26  1  0
  9 27  1  0
 10 28  1  0
 11 29  1  0
 11 30  1  0
 12 31  1  0
 13 32  1  0
 13 33  1  0
 14 34  1  0
 14 35  1  0
 15 36  1  0
 15 37  1  0
 16 38  1  0
 16 39  1  0
 17 40  1  0
 17 41  1  0
M  END
$$$$

     RDKit          3D

 41 41  0  0  0  0  0  0  0  0999 V2000
    4.1571   -0.4210    2.6964 C   0  0  0  0  0  0  0  0  0  0  0  0
    4.2551   -1.8237    2.2269 C   0  0  0  0  0  0  0  0  0  0  0  0
    4.2764   -2.0971    0.9031 C   0  0  0  0  0  0  0  0  0  0  0  0
    4.3686   -3.4187    0.4950 O   0  0  0  0  0  0  0  0  0  0  0  0
    4.1982   -0.9350   -0.0047 C   0  0  0  0  0  0  0  0  0  0  0  0
    3.0246   -0.9246   -0.9356 C   0  0  0  0  0  0  0  0  0  0  0  0
    1.7412   -0.9162   -0.2193 C   0  0  0  0  0  0  0  0  0  0  0  0
    1.6770   -0.9065    1.0327 O   0  0  0  0  0  0  0  0  0  0  0  0
    0.4523   -0.9189   -0.9401 C   0  0  0  0  0  0  0  0  0  0  0  0
   -0.6982   -0.9066   -0.2938 C   0  0  0  0  0  0  0  0  0  0  0  0
   -2.0208   -0.9084   -0.9459 C   0  0  0  0  0  0  0  0  0  0  0  0
   -2.7508    0.3519   -0.5429 C   0  0  0  0  0  0  0  0  0  0  0  0
   -2.9318    0.4132    0.9503 C   0  0  0  0  0  0  0  0  0  0  0  0
   -4.1161    1.2260    1.3390 C   0  0  0  0  0  0  0  0  0  0  0  0
   -4.4187    2.3663    0.3985 C   0  0  0  0  0  0  0  0  0  0  0  0
   -4.5557    1.9061   -1.0330 C   0  0  0  0  0  0  0  0  0  0  0  0
   -4.1144    0.4477   -1.1796 C   0  0  0  0  0  0  0  0  0  0  0  0
    4.8681   -0.3077    3.5458 H   0  0  0  0  0  0  0  0  0  0  0  0
    3.1245   -0.1119    2.9435 H   0  0  0  0  0  0  0  0  0  0  0  0
    4.4620    0.2447    1.8413 H   0  0  0  0  0  0  0  0  0  0  0  0
    4.3118   -2.6587    2.8970 H   0  0  0  0  0  0  0  0  0  0  0  0
    5.0800   -4.0110    0.8985 H   0  0  0  0  0  0  0  0  0  0  0  0
    4.1949    0.0291    0.5728 H   0  0  0  0  0  0  0  0  0  0  0  0
    5.1559   -0.9535   -0.5910 H   0  0  0  0  0  0  0  0  0  0  0  0
    3.1048   -0.0691   -1.6527 H   0  0  0  0  0  0  0  0  0  0  0  0
    3.1170   -1.8735   -1.5477 H   0  0  0  0  0  0  0  0  0  0  0  0
    0.4400   -0.9312   -2.0245 H   0  0  0  0  0  0  0  0  0  0  0  0
   -0.6510   -0.8947    0.7964 H   0  0  0  0  0  0  0  0  0  0  0  0
   -2.5962   -1.7657   -0.5349 H   0  0  0  0  0  0  0  0  0  0  0  0
   -1.9565   -1.0360   -2.0244 H   0  0  0  0  0  0  0  0  0  0  0  0
   -2.1882    1.2634   -0.8754 H   0  0  0  0  0  0  0  0  0  0  0  0
   -3.0777   -0.6331    1.3226 H   0  0  0  0  0  0  0  0  0  0  0  0
   -1.9812    0.7612    1.3985 H   0  0  0  0  0  0  0  0  0  0  0  0
   -5.0288    0.5737    1.4449 H   0  0  0  0  0  0  0  0  0  0  0  0
   -3.9432    1.6664    2.3428 H   0  0  0  0  0  0  0  0  0  0  0  0
   -3.6582    3.1460    0.5409 H   0  0  0  0  0  0  0  0  0  0  0  0
   -5.4036    2.7894    0.6993 H   0  0  0  0  0  0  0  0  0  0  0  0
   -3.8303    2.5023   -1.6335 H   0  0  0  0  0  0  0  0  0  0  0  0
   -5.5637    2.0569   -1.4490 H   0  0  0  0  0  0  0  0  0  0  0  0
   -4.1297    0.1657   -2.2350 H   0  0  0  0  0  0  0  0  0  0  0  0
   -4.8674   -0.1647   -0.6444 H   0  0  0  0  0  0  0  0  0  0  0  0
  1  2  1  0
  2  3  2  0
  3  4  1  0
  3  5  1  0
  5  6  1  0
  6  7  1  0
  7  8  2  0
  7  9  1  0
  9 10  2  0
 10 11  1  0
 11 12  1  0
 12 13  1  0
 13 14  1  0
 14 15  1  0
 15 16  1  0
 16 17  1  0
 17 12  1  0
  1 18  1  0
  1 19  1  0
  1 20  1  0
  2 21  1  0
  4 22  1  0
  5 23  1  0
  5 24  1  0
  6 25  1  0
  6 26  1  0
  9 27  1  0
 10 28  1  0
 11 29  1  0
 11 30  1  0
 12 31  1  0
 13 32  1  0
 13 33  1  0
 14 34  1  0
 14 35  1  0
 15 36  1  0
 15 37  1  0
 16 38  1  0
 16 39  1  0
 17 40  1  0
 17 41  1  0
M  END
$$$$

     RDKit          3D

 41 41  0  0  0  0  0  0  0  0999 V2000
    3.6774   -6.4141    1.7678 C   0  0  0  0  0  0  0  0  0  0  0  0
    3.9476   -5.3688    2.7783 C   0  0  0  0  0  0  0  0  0  0  0  0
    2.9691   -4.5340    3.0952 C   0  0  0  0  0  0  0  0  0  0  0  0
    3.2725   -3.5698    4.0495 O   0  0  0  0  0  0  0  0  0  0  0  0
    1.6246   -4.6230    2.4667 C   0  0  0  0  0  0  0  0  0  0  0  0
    1.3550   -3.3153    1.7624 C   0  0  0  0  0  0  0  0  0  0  0  0
    0.0284   -3.2995    1.0973 C   0  0  0  0  0  0  0  0  0  0  0  0
   -0.7592   -4.2795    1.1340 O   0  0  0  0  0  0  0  0  0  0  0  0
   -0.3434   -2.0824    0.3819 C   0  0  0  0  0  0  0  0  0  0  0  0
   -1.5131   -1.9605   -0.2517 C   0  0  0  0  0  0  0  0  0  0  0  0
   -1.9232   -0.7496   -0.9835 C   0  0  0  0  0  0  0  0  0  0  0  0
   -3.1882   -0.1260   -0.4425 C   0  0  0  0  0  0  0  0  0  0  0  0
   -3.0922    0.2963    0.9818 C   0  0  0  0  0  0  0  0  0  0  0  0
   -3.5621    1.7013    1.2261 C   0  0  0  0  0  0  0  0  0  0  0  0
   -4.8093    2.0581    0.4687 C   0  0  0  0  0  0  0  0  0  0  0  0
   -4.7806    1.6834   -0.9720 C   0  0  0  0  0  0  0  0  0  0  0  0
   -3.4551    1.0980   -1.3298 C   0  0  0  0  0  0  0  0  0  0  0  0
    4.5907   -7.0032    1.5887 H   0  0  0  0  0  0  0  0  0  0  0  0
    2.8106   -7.0638    2.0587 H   0  0  0  0  0  0  0  0  0  0  0  0
    3.4165   -5.9501    0.7837 H   0  0  0  0  0  0  0  0  0  0  0  0
    4.9258   -5.3062    3.2338 H   0  0  0  0  0  0  0  0  0  0  0  0
    2.7604   -2.7120    4.0502 H   0  0  0  0  0  0  0  0  0  0  0  0
    1.6688   -5.4151    1.6880 H   0  0  0  0  0  0  0  0  0  0  0  0
    0.8416   -4.8928    3.1768 H   0  0  0  0  0  0  0  0  0  0  0  0
    2.1350   -3.1133    1.0043 H   0  0  0  0  0  0  0  0  0  0  0  0
    1.3859   -2.4571    2.4765 H   0  0  0  0  0  0  0  0  0  0  0  0
    0.3008   -1.2171    0.3241 H   0  0  0  0  0  0  0  0  0  0  0  0
   -2.1833   -2.7920   -0.2216 H   0  0  0  0  0  0  0  0  0  0  0  0
   -2.1658   -1.0777   -2.0307 H   0  0  0  0  0  0  0  0  0  0  0  0
   -1.1136   -0.0008   -1.0961 H   0  0  0  0  0  0  0  0  0  0  0  0
   -4.0517   -0.8106   -0.5703 H   0  0  0  0  0  0  0  0  0  0  0  0
   -3.6744   -0.3759    1.6541 H   0  0  0  0  0  0  0  0  0  0  0  0
   -2.0385    0.2401    1.3583 H   0  0  0  0  0  0  0  0  0  0  0  0
   -3.8105    1.7755    2.3139 H   0  0  0  0  0  0  0  0  0  0  0  0
   -2.7290    2.3871    1.0508 H   0  0  0  0  0  0  0  0  0  0  0  0
   -5.7211    1.6800    0.9559 H   0  0  0  0  0  0  0  0  0  0  0  0
   -4.8931    3.1831    0.5149 H   0  0  0  0  0  0  0  0  0  0  0  0
   -5.5555    0.8978   -1.1827 H   0  0  0  0  0  0  0  0  0  0  0  0
   -4.9426    2.5681   -1.6546 H   0  0  0  0  0  0  0  0  0  0  0  0
   -2.6095    1.7793   -1.1555 H   0  0  0  0  0  0  0  0  0  0  0  0
   -3.4230    0.7201   -2.3746 H   0  0  0  0  0  0  0  0  0  0  0  0
  1  2  1  0
  2  3  2  0
  3  4  1  0
  3  5  1  0
  5  6  1  0
  6  7  1  0
  7  8  2  0
  7  9  1  0
  9 10  2  0
 10 11  1  0
 11 12  1  0
 12 13  1  0
 13 14  1  0
 14 15  1  0
 15 16  1  0
 16 17  1  0
 17 12  1  0
  1 18  1  0
  1 19  1  0
  1 20  1  0
  2 21  1  0
  4 22  1  0
  5 23  1  0
  5 24  1  0
  6 25  1  0
  6 26  1  0
  9 27  1  0
 10 28  1  0
 11 29  1  0
 11 30  1  0
 12 31  1  0
 13 32  1  0
 13 33  1  0
 14 34  1  0
 14 35  1  0
 15 36  1  0
 15 37  1  0
 16 38  1  0
 16 39  1  0
 17 40  1  0
 17 41  1  0
M  END
$$$$

     RDKit          3D

 41 41  0  0  0  0  0  0  0  0999 V2000
    4.5068   -1.4381    3.3619 C   0  0  0  0  0  0  0  0  0  0  0  0
    4.1665   -0.5378    2.2309 C   0  0  0  0  0  0  0  0  0  0  0  0
    4.1502   -1.0539    1.0128 C   0  0  0  0  0  0  0  0  0  0  0  0
    4.4467   -2.3946    0.8417 O   0  0  0  0  0  0  0  0  0  0  0  0
    3.8194   -0.2048   -0.1405 C   0  0  0  0  0  0  0  0  0  0  0  0
    2.6214   -0.6365   -0.9219 C   0  0  0  0  0  0  0  0  0  0  0  0
    1.3586   -0.6708   -0.1597 C   0  0  0  0  0  0  0  0  0  0  0  0
    1.3637   -0.3377    1.0452 O   0  0  0  0  0  0  0  0  0  0  0  0
    0.0895   -1.0795   -0.7558 C   0  0  0  0  0  0  0  0  0  0  0  0
   -1.0425   -1.1017   -0.0598 C   0  0  0  0  0  0  0  0  0  0  0  0
   -2.3259   -1.5243   -0.6965 C   0  0  0  0  0  0  0  0  0  0  0  0
   -3.3783   -0.4379   -0.6819 C   0  0  0  0  0  0  0  0  0  0  0  0
   -3.6324   -0.0993    0.7633 C   0  0  0  0  0  0  0  0  0  0  0  0
   -4.2764    1.2375    0.9672 C   0  0  0  0  0  0  0  0  0  0  0  0
   -3.7150    2.3327    0.1236 C   0  0  0  0  0  0  0  0  0  0  0  0
   -3.8087    1.9105   -1.3279 C   0  0  0  0  0  0  0  0  0  0  0  0
   -2.8545    0.7231   -1.4733 C   0  0  0  0  0  0  0  0  0  0  0  0
    3.8095   -1.2174    4.2063 H   0  0  0  0  0  0  0  0  0  0  0  0
    4.2889   -2.4733    3.0551 H   0  0  0  0  0  0  0  0  0  0  0  0
    5.5386   -1.2876    3.6883 H   0  0  0  0  0  0  0  0  0  0  0  0
    3.9361    0.5237    2.4040 H   0  0  0  0  0  0  0  0  0  0  0  0
    5.2601   -2.8382    1.2447 H   0  0  0  0  0  0  0  0  0  0  0  0
    4.7350   -0.1200   -0.7954 H   0  0  0  0  0  0  0  0  0  0  0  0
    3.6343    0.8489    0.1796 H   0  0  0  0  0  0  0  0  0  0  0  0
    2.4985   -0.0641   -1.8624 H   0  0  0  0  0  0  0  0  0  0  0  0
    2.8392   -1.6900   -1.2661 H   0  0  0  0  0  0  0  0  0  0  0  0
    0.0099   -1.3829   -1.7887 H   0  0  0  0  0  0  0  0  0  0  0  0
   -0.9749   -0.7996    0.9775 H   0  0  0  0  0  0  0  0  0  0  0  0
   -2.0665   -1.8054   -1.7418 H   0  0  0  0  0  0  0  0  0  0  0  0
   -2.6971   -2.4149   -0.1836 H   0  0  0  0  0  0  0  0  0  0  0  0
   -4.2933   -0.7972   -1.1747 H   0  0  0  0  0  0  0  0  0  0  0  0
   -2.6940   -0.1623    1.3649 H   0  0  0  0  0  0  0  0  0  0  0  0
   -4.3152   -0.8746    1.1671 H   0  0  0  0  0  0  0  0  0  0  0  0
   -5.3783    1.2203    0.8452 H   0  0  0  0  0  0  0  0  0  0  0  0
   -4.0928    1.5237    2.0450 H   0  0  0  0  0  0  0  0  0  0  0  0
   -4.3759    3.2214    0.2519 H   0  0  0  0  0  0  0  0  0  0  0  0
   -2.6682    2.5859    0.3512 H   0  0  0  0  0  0  0  0  0  0  0  0
   -4.8432    1.5486   -1.4977 H   0  0  0  0  0  0  0  0  0  0  0  0
   -3.4859    2.6939   -2.0295 H   0  0  0  0  0  0  0  0  0  0  0  0
   -1.8514    0.9885   -1.0597 H   0  0  0  0  0  0  0  0  0  0  0  0
   -2.7753    0.4083   -2.5318 H   0  0  0  0  0  0  0  0  0  0  0  0
  1  2  1  0
  2  3  2  0
  3  4  1  0
  3  5  1  0
  5  6  1  0
  6  7  1  0
  7  8  2  0
  7  9  1  0
  9 10  2  0
 10 11  1  0
 11 12  1  0
 12 13  1  0
 13 14  1  0
 14 15  1  0
 15 16  1  0
 16 17  1  0
 17 12  1  0
  1 18  1  0
  1 19  1  0
  1 20  1  0
  2 21  1  0
  4 22  1  0
  5 23  1  0
  5 24  1  0
  6 25  1  0
  6 26  1  0
  9 27  1  0
 10 28  1  0
 11 29  1  0
 11 30  1  0
 12 31  1  0
 13 32  1  0
 13 33  1  0
 14 34  1  0
 14 35  1  0
 15 36  1  0
 15 37  1  0
 16 38  1  0
 16 39  1  0
 17 40  1  0
 17 41  1  0
M  END
$$$$

     RDKit          3D

 41 41  0  0  0  0  0  0  0  0999 V2000
    3.6240    0.8158    1.5331 C   0  0  0  0  0  0  0  0  0  0  0  0
    3.2854   -0.5251    2.1392 C   0  0  0  0  0  0  0  0  0  0  0  0
    3.3653   -1.6287    1.4222 C   0  0  0  0  0  0  0  0  0  0  0  0
    3.0438   -2.8304    2.0282 O   0  0  0  0  0  0  0  0  0  0  0  0
    3.7815   -1.6290    0.0104 C   0  0  0  0  0  0  0  0  0  0  0  0
    2.7449   -2.1784   -0.9436 C   0  0  0  0  0  0  0  0  0  0  0  0
    1.5451   -1.2857   -0.7895 C   0  0  0  0  0  0  0  0  0  0  0  0
    1.6355   -0.3524    0.0062 O   0  0  0  0  0  0  0  0  0  0  0  0
    0.3418   -1.5301   -1.5566 C   0  0  0  0  0  0  0  0  0  0  0  0
   -0.7625   -0.8307   -1.5196 C   0  0  0  0  0  0  0  0  0  0  0  0
   -0.9698    0.3319   -0.6787 C   0  0  0  0  0  0  0  0  0  0  0  0
   -2.1412    0.0431    0.2727 C   0  0  0  0  0  0  0  0  0  0  0  0
   -3.3575   -0.2300   -0.5684 C   0  0  0  0  0  0  0  0  0  0  0  0
   -4.0294    1.0868   -0.8630 C   0  0  0  0  0  0  0  0  0  0  0  0
   -4.5851    1.6726    0.4084 C   0  0  0  0  0  0  0  0  0  0  0  0
   -3.8042    1.2297    1.6132 C   0  0  0  0  0  0  0  0  0  0  0  0
   -2.3277    1.1823    1.2507 C   0  0  0  0  0  0  0  0  0  0  0  0
    4.2168    1.4149    2.2343 H   0  0  0  0  0  0  0  0  0  0  0  0
    4.1671    0.6121    0.5935 H   0  0  0  0  0  0  0  0  0  0  0  0
    2.6707    1.3232    1.2061 H   0  0  0  0  0  0  0  0  0  0  0  0
    2.9709   -0.6127    3.1733 H   0  0  0  0  0  0  0  0  0  0  0  0
    3.4010   -3.1528    2.9205 H   0  0  0  0  0  0  0  0  0  0  0  0
    4.6973   -2.2341   -0.1736 H   0  0  0  0  0  0  0  0  0  0  0  0
    3.9360   -0.5596   -0.2932 H   0  0  0  0  0  0  0  0  0  0  0  0
    3.0539   -2.1795   -2.0035 H   0  0  0  0  0  0  0  0  0  0  0  0
    2.4920   -3.2247   -0.6656 H   0  0  0  0  0  0  0  0  0  0  0  0
    0.3015   -2.3896   -2.2670 H   0  0  0  0  0  0  0  0  0  0  0  0
   -1.6135   -1.1236   -2.1664 H   0  0  0  0  0  0  0  0  0  0  0  0
   -0.0780    0.3665    0.0511 H   0  0  0  0  0  0  0  0  0  0  0  0
   -1.0050    1.3171   -1.1010 H   0  0  0  0  0  0  0  0  0  0  0  0
   -1.8555   -0.8514    0.8847 H   0  0  0  0  0  0  0  0  0  0  0  0
   -3.0400   -0.7082   -1.5257 H   0  0  0  0  0  0  0  0  0  0  0  0
   -4.0092   -0.9568   -0.0455 H   0  0  0  0  0  0  0  0  0  0  0  0
   -4.8217    0.8888   -1.6181 H   0  0  0  0  0  0  0  0  0  0  0  0
   -3.2565    1.7784   -1.2503 H   0  0  0  0  0  0  0  0  0  0  0  0
   -4.6097    2.7841    0.3397 H   0  0  0  0  0  0  0  0  0  0  0  0
   -5.6315    1.2580    0.5240 H   0  0  0  0  0  0  0  0  0  0  0  0
   -4.0903    0.2005    1.9328 H   0  0  0  0  0  0  0  0  0  0  0  0
   -3.9984    1.9181    2.4368 H   0  0  0  0  0  0  0  0  0  0  0  0
   -1.9760    2.1234    0.8068 H   0  0  0  0  0  0  0  0  0  0  0  0
   -1.7847    0.9883    2.2200 H   0  0  0  0  0  0  0  0  0  0  0  0
  1  2  1  0
  2  3  2  0
  3  4  1  0
  3  5  1  0
  5  6  1  0
  6  7  1  0
  7  8  2  0
  7  9  1  0
  9 10  2  0
 10 11  1  0
 11 12  1  0
 12 13  1  0
 13 14  1  0
 14 15  1  0
 15 16  1  0
 16 17  1  0
 17 12  1  0
  1 18  1  0
  1 19  1  0
  1 20  1  0
  2 21  1  0
  4 22  1  0
  5 23  1  0
  5 24  1  0
  6 25  1  0
  6 26  1  0
  9 27  1  0
 10 28  1  0
 11 29  1  0
 11 30  1  0
 12 31  1  0
 13 32  1  0
 13 33  1  0
 14 34  1  0
 14 35  1  0
 15 36  1  0
 15 37  1  0
 16 38  1  0
 16 39  1  0
 17 40  1  0
 17 41  1  0
M  END
$$$$

     RDKit          3D

 41 41  0  0  0  0  0  0  0  0999 V2000
    3.7919    2.0517    3.2107 C   0  0  0  0  0  0  0  0  0  0  0  0
    4.0319    2.4144    1.7955 C   0  0  0  0  0  0  0  0  0  0  0  0
    3.7996    1.4460    0.8808 C   0  0  0  0  0  0  0  0  0  0  0  0
    4.0165    1.7598   -0.4445 O   0  0  0  0  0  0  0  0  0  0  0  0
    3.3430    0.1546    1.3502 C   0  0  0  0  0  0  0  0  0  0  0  0
    1.9711   -0.2902    0.8380 C   0  0  0  0  0  0  0  0  0  0  0  0
    1.9049   -0.4890   -0.5970 C   0  0  0  0  0  0  0  0  0  0  0  0
    3.0631   -0.4063   -1.2010 O   0  0  0  0  0  0  0  0  0  0  0  0
    0.8007   -0.7577   -1.4742 C   0  0  0  0  0  0  0  0  0  0  0  0
   -0.4429   -0.8992   -1.1175 C   0  0  0  0  0  0  0  0  0  0  0  0
   -1.0343   -0.8308    0.2158 C   0  0  0  0  0  0  0  0  0  0  0  0
   -2.0316    0.3291    0.2067 C   0  0  0  0  0  0  0  0  0  0  0  0
   -3.0694    0.0420   -0.8304 C   0  0  0  0  0  0  0  0  0  0  0  0
   -4.4211    0.5871   -0.5738 C   0  0  0  0  0  0  0  0  0  0  0  0
   -4.4691    1.7999    0.3066 C   0  0  0  0  0  0  0  0  0  0  0  0
   -3.5357    1.7451    1.4771 C   0  0  0  0  0  0  0  0  0  0  0  0
   -2.7182    0.4812    1.5274 C   0  0  0  0  0  0  0  0  0  0  0  0
    3.9188    2.9778    3.8385 H   0  0  0  0  0  0  0  0  0  0  0  0
    4.4884    1.2707    3.5772 H   0  0  0  0  0  0  0  0  0  0  0  0
    2.7277    1.7297    3.3872 H   0  0  0  0  0  0  0  0  0  0  0  0
    4.3733    3.3916    1.4834 H   0  0  0  0  0  0  0  0  0  0  0  0
    4.9231    1.6507   -0.8561 H   0  0  0  0  0  0  0  0  0  0  0  0
    3.3336    0.0306    2.4393 H   0  0  0  0  0  0  0  0  0  0  0  0
    4.0747   -0.6175    0.9665 H   0  0  0  0  0  0  0  0  0  0  0  0
    1.7626   -1.2119    1.4365 H   0  0  0  0  0  0  0  0  0  0  0  0
    1.2774    0.5320    1.1779 H   0  0  0  0  0  0  0  0  0  0  0  0
    1.0464   -0.8532   -2.5790 H   0  0  0  0  0  0  0  0  0  0  0  0
   -1.1423   -1.1024   -1.9719 H   0  0  0  0  0  0  0  0  0  0  0  0
   -1.7387   -1.7559    0.3569 H   0  0  0  0  0  0  0  0  0  0  0  0
   -0.4054   -0.8932    1.0656 H   0  0  0  0  0  0  0  0  0  0  0  0
   -1.4935    1.2513   -0.0287 H   0  0  0  0  0  0  0  0  0  0  0  0
   -3.1645   -1.0812   -0.8985 H   0  0  0  0  0  0  0  0  0  0  0  0
   -2.6605    0.3297   -1.8422 H   0  0  0  0  0  0  0  0  0  0  0  0
   -4.8675    0.8875   -1.5570 H   0  0  0  0  0  0  0  0  0  0  0  0
   -5.1226   -0.2081   -0.1858 H   0  0  0  0  0  0  0  0  0  0  0  0
   -4.3367    2.7407   -0.2657 H   0  0  0  0  0  0  0  0  0  0  0  0
   -5.5131    1.8486    0.7222 H   0  0  0  0  0  0  0  0  0  0  0  0
   -4.0537    1.8504    2.4524 H   0  0  0  0  0  0  0  0  0  0  0  0
   -2.8180    2.5917    1.4225 H   0  0  0  0  0  0  0  0  0  0  0  0
   -2.0103    0.5707    2.3739 H   0  0  0  0  0  0  0  0  0  0  0  0
   -3.3917   -0.3637    1.7766 H   0  0  0  0  0  0  0  0  0  0  0  0
  1  2  1  0
  2  3  2  0
  3  4  1  0
  3  5  1  0
  5  6  1  0
  6  7  1  0
  7  8  2  0
  7  9  1  0
  9 10  2  0
 10 11  1  0
 11 12  1  0
 12 13  1  0
 13 14  1  0
 14 15  1  0
 15 16  1  0
 16 17  1  0
 17 12  1  0
  1 18  1  0
  1 19  1  0
  1 20  1  0
  2 21  1  0
  4 22  1  0
  5 23  1  0
  5 24  1  0
  6 25  1  0
  6 26  1  0
  9 27  1  0
 10 28  1  0
 11 29  1  0
 11 30  1  0
 12 31  1  0
 13 32  1  0
 13 33  1  0
 14 34  1  0
 14 35  1  0
 15 36  1  0
 15 37  1  0
 16 38  1  0
 16 39  1  0
 17 40  1  0
 17 41  1  0
M  END
$$$$

     RDKit          3D

 41 41  0  0  0  0  0  0  0  0999 V2000
    2.9854    0.5632    2.8770 C   0  0  0  0  0  0  0  0  0  0  0  0
    3.3501    0.0839    1.4958 C   0  0  0  0  0  0  0  0  0  0  0  0
    3.1710   -1.1825    1.1707 C   0  0  0  0  0  0  0  0  0  0  0  0
    2.6440   -2.0140    2.1479 O   0  0  0  0  0  0  0  0  0  0  0  0
    3.4850   -1.7679   -0.1328 C   0  0  0  0  0  0  0  0  0  0  0  0
    2.2630   -2.3706   -0.8135 C   0  0  0  0  0  0  0  0  0  0  0  0
    1.2978   -1.2665   -0.9977 C   0  0  0  0  0  0  0  0  0  0  0  0
    1.6447   -0.1581   -0.6080 O   0  0  0  0  0  0  0  0  0  0  0  0
    0.0333   -1.5512   -1.6109 C   0  0  0  0  0  0  0  0  0  0  0  0
   -0.8760   -0.6435   -1.8179 C   0  0  0  0  0  0  0  0  0  0  0  0
   -0.8265    0.7706   -1.4976 C   0  0  0  0  0  0  0  0  0  0  0  0
   -1.9364    1.1818   -0.5122 C   0  0  0  0  0  0  0  0  0  0  0  0
   -3.2611    0.8698   -1.1608 C   0  0  0  0  0  0  0  0  0  0  0  0
   -4.2546    0.2798   -0.1986 C   0  0  0  0  0  0  0  0  0  0  0  0
   -4.1153    0.8993    1.1791 C   0  0  0  0  0  0  0  0  0  0  0  0
   -2.7591    0.6239    1.7863 C   0  0  0  0  0  0  0  0  0  0  0  0
   -1.6985    0.3751    0.7411 C   0  0  0  0  0  0  0  0  0  0  0  0
    2.4737    1.5316    2.8450 H   0  0  0  0  0  0  0  0  0  0  0  0
    3.8479    0.5086    3.5507 H   0  0  0  0  0  0  0  0  0  0  0  0
    2.2344   -0.1763    3.2777 H   0  0  0  0  0  0  0  0  0  0  0  0
    3.7578    0.7574    0.7592 H   0  0  0  0  0  0  0  0  0  0  0  0
    3.0023   -2.0605    3.0925 H   0  0  0  0  0  0  0  0  0  0  0  0
    4.2763   -2.5244   -0.0050 H   0  0  0  0  0  0  0  0  0  0  0  0
    3.8879   -0.9549   -0.7856 H   0  0  0  0  0  0  0  0  0  0  0  0
    2.6355   -2.7260   -1.8194 H   0  0  0  0  0  0  0  0  0  0  0  0
    1.8653   -3.2274   -0.2771 H   0  0  0  0  0  0  0  0  0  0  0  0
   -0.2340   -2.5786   -1.9441 H   0  0  0  0  0  0  0  0  0  0  0  0
   -1.8157   -0.9811   -2.3027 H   0  0  0  0  0  0  0  0  0  0  0  0
    0.1117    0.8984   -0.8508 H   0  0  0  0  0  0  0  0  0  0  0  0
   -0.7148    1.5055   -2.2648 H   0  0  0  0  0  0  0  0  0  0  0  0
   -1.8115    2.2570   -0.3530 H   0  0  0  0  0  0  0  0  0  0  0  0
   -3.1379    0.1307   -2.0003 H   0  0  0  0  0  0  0  0  0  0  0  0
   -3.7099    1.7912   -1.5836 H   0  0  0  0  0  0  0  0  0  0  0  0
   -4.1621   -0.8112   -0.1518 H   0  0  0  0  0  0  0  0  0  0  0  0
   -5.2696    0.5211   -0.5611 H   0  0  0  0  0  0  0  0  0  0  0  0
   -4.9274    0.5263    1.8106 H   0  0  0  0  0  0  0  0  0  0  0  0
   -4.2668    2.0018    1.0677 H   0  0  0  0  0  0  0  0  0  0  0  0
   -2.8240   -0.2921    2.4181 H   0  0  0  0  0  0  0  0  0  0  0  0
   -2.4524    1.5210    2.3863 H   0  0  0  0  0  0  0  0  0  0  0  0
   -0.7264    0.7156    1.1583 H   0  0  0  0  0  0  0  0  0  0  0  0
   -1.6600   -0.7045    0.4637 H   0  0  0  0  0  0  0  0  0  0  0  0
  1  2  1  0
  2  3  2  0
  3  4  1  0
  3  5  1  0
  5  6  1  0
  6  7  1  0
  7  8  2  0
  7  9  1  0
  9 10  2  0
 10 11  1  0
 11 12  1  0
 12 13  1  0
 13 14  1  0
 14 15  1  0
 15 16  1  0
 16 17  1  0
 17 12  1  0
  1 18  1  0
  1 19  1  0
  1 20  1  0
  2 21  1  0
  4 22  1  0
  5 23  1  0
  5 24  1  0
  6 25  1  0
  6 26  1  0
  9 27  1  0
 10 28  1  0
 11 29  1  0
 11 30  1  0
 12 31  1  0
 13 32  1  0
 13 33  1  0
 14 34  1  0
 14 35  1  0
 15 36  1  0
 15 37  1  0
 16 38  1  0
 16 39  1  0
 17 40  1  0
 17 41  1  0
M  END
$$$$

     RDKit          3D

 41 41  0  0  0  0  0  0  0  0999 V2000
    3.5663    3.2755   -8.1618 C   0  0  0  0  0  0  0  0  0  0  0  0
    2.5294    2.7977   -7.2062 C   0  0  0  0  0  0  0  0  0  0  0  0
    2.7401    1.7795   -6.4014 C   0  0  0  0  0  0  0  0  0  0  0  0
    3.9711    1.1436   -6.4581 O   0  0  0  0  0  0  0  0  0  0  0  0
    1.6871    1.2909   -5.4281 C   0  0  0  0  0  0  0  0  0  0  0  0
    2.2686    1.4132   -4.0540 C   0  0  0  0  0  0  0  0  0  0  0  0
    1.2767    0.9449   -3.0220 C   0  0  0  0  0  0  0  0  0  0  0  0
    1.7065    1.0190   -1.8547 O   0  0  0  0  0  0  0  0  0  0  0  0
   -0.0012    0.4832   -3.4666 C   0  0  0  0  0  0  0  0  0  0  0  0
   -0.9289    0.0537   -2.6568 C   0  0  0  0  0  0  0  0  0  0  0  0
   -0.7940   -0.0156   -1.2103 C   0  0  0  0  0  0  0  0  0  0  0  0
   -1.8791    0.8858   -0.6297 C   0  0  0  0  0  0  0  0  0  0  0  0
   -3.2370    0.4001   -1.0606 C   0  0  0  0  0  0  0  0  0  0  0  0
   -4.2521    1.1193   -0.1633 C   0  0  0  0  0  0  0  0  0  0  0  0
   -4.1634    0.4820    1.1998 C   0  0  0  0  0  0  0  0  0  0  0  0
   -2.7428    0.2753    1.6500 C   0  0  0  0  0  0  0  0  0  0  0  0
   -1.7505    1.0672    0.8388 C   0  0  0  0  0  0  0  0  0  0  0  0
    3.3309    4.3423   -8.3857 H   0  0  0  0  0  0  0  0  0  0  0  0
    3.5554    2.7119   -9.1061 H   0  0  0  0  0  0  0  0  0  0  0  0
    4.5647    3.2619   -7.6728 H   0  0  0  0  0  0  0  0  0  0  0  0
    1.5572    3.2931   -7.1553 H   0  0  0  0  0  0  0  0  0  0  0  0
    4.5679    1.1881   -5.6434 H   0  0  0  0  0  0  0  0  0  0  0  0
    0.7764    1.9055   -5.5564 H   0  0  0  0  0  0  0  0  0  0  0  0
    1.4243    0.2401   -5.6667 H   0  0  0  0  0  0  0  0  0  0  0  0
    3.1217    0.6817   -3.9589 H   0  0  0  0  0  0  0  0  0  0  0  0
    2.6446    2.4115   -3.8199 H   0  0  0  0  0  0  0  0  0  0  0  0
   -0.2164    0.4914   -4.5701 H   0  0  0  0  0  0  0  0  0  0  0  0
   -1.8972   -0.2868   -3.1030 H   0  0  0  0  0  0  0  0  0  0  0  0
    0.1532    0.1355   -0.7419 H   0  0  0  0  0  0  0  0  0  0  0  0
   -1.1248   -1.0819   -0.9107 H   0  0  0  0  0  0  0  0  0  0  0  0
   -1.7246    1.8884   -1.1164 H   0  0  0  0  0  0  0  0  0  0  0  0
   -3.2826   -0.6826   -0.9163 H   0  0  0  0  0  0  0  0  0  0  0  0
   -3.3743    0.7120   -2.1166 H   0  0  0  0  0  0  0  0  0  0  0  0
   -5.2660    1.0464   -0.5701 H   0  0  0  0  0  0  0  0  0  0  0  0
   -3.9465    2.1839   -0.1364 H   0  0  0  0  0  0  0  0  0  0  0  0
   -4.7591    1.0724    1.9395 H   0  0  0  0  0  0  0  0  0  0  0  0
   -4.6419   -0.5170    1.1307 H   0  0  0  0  0  0  0  0  0  0  0  0
   -2.4227   -0.7793    1.6260 H   0  0  0  0  0  0  0  0  0  0  0  0
   -2.6806    0.6230    2.7021 H   0  0  0  0  0  0  0  0  0  0  0  0
   -0.7338    0.7319    1.1654 H   0  0  0  0  0  0  0  0  0  0  0  0
   -1.8285    2.1366    1.1415 H   0  0  0  0  0  0  0  0  0  0  0  0
  1  2  1  0
  2  3  2  0
  3  4  1  0
  3  5  1  0
  5  6  1  0
  6  7  1  0
  7  8  2  0
  7  9  1  0
  9 10  2  0
 10 11  1  0
 11 12  1  0
 12 13  1  0
 13 14  1  0
 14 15  1  0
 15 16  1  0
 16 17  1  0
 17 12  1  0
  1 18  1  0
  1 19  1  0
  1 20  1  0
  2 21  1  0
  4 22  1  0
  5 23  1  0
  5 24  1  0
  6 25  1  0
  6 26  1  0
  9 27  1  0
 10 28  1  0
 11 29  1  0
 11 30  1  0
 12 31  1  0
 13 32  1  0
 13 33  1  0
 14 34  1  0
 14 35  1  0
 15 36  1  0
 15 37  1  0
 16 38  1  0
 16 39  1  0
 17 40  1  0
 17 41  1  0
M  END
$$$$

     RDKit          3D

 41 41  0  0  0  0  0  0  0  0999 V2000
    6.2568   -3.7857   -1.2067 C   0  0  0  0  0  0  0  0  0  0  0  0
    5.1248   -3.6074   -0.2536 C   0  0  0  0  0  0  0  0  0  0  0  0
    4.1101   -2.6115   -0.6824 C   0  0  0  0  0  0  0  0  0  0  0  0
    4.3175   -2.0635   -1.7524 O   0  0  0  0  0  0  0  0  0  0  0  0
    2.8935   -2.2825    0.1356 C   0  0  0  0  0  0  0  0  0  0  0  0
    1.7647   -3.0438   -0.4177 C   0  0  0  0  0  0  0  0  0  0  0  0
    0.6949   -2.4660   -0.8913 C   0  0  0  0  0  0  0  0  0  0  0  0
   -0.3289   -3.2766   -1.3971 O   0  0  0  0  0  0  0  0  0  0  0  0
    0.5521   -1.0317   -0.9029 C   0  0  0  0  0  0  0  0  0  0  0  0
   -0.5804   -0.5340   -1.4064 C   0  0  0  0  0  0  0  0  0  0  0  0
   -0.8421    0.9287   -1.4717 C   0  0  0  0  0  0  0  0  0  0  0  0
   -2.0762    1.1934   -0.6397 C   0  0  0  0  0  0  0  0  0  0  0  0
   -3.2428    0.4173   -1.2058 C   0  0  0  0  0  0  0  0  0  0  0  0
   -4.4571    0.5760   -0.3299 C   0  0  0  0  0  0  0  0  0  0  0  0
   -4.2779    1.6163    0.7343 C   0  0  0  0  0  0  0  0  0  0  0  0
   -3.0626    1.4204    1.5751 C   0  0  0  0  0  0  0  0  0  0  0  0
   -1.9097    0.7883    0.7976 C   0  0  0  0  0  0  0  0  0  0  0  0
    6.8518   -4.7103   -1.0093 H   0  0  0  0  0  0  0  0  0  0  0  0
    5.8122   -3.9241   -2.2280 H   0  0  0  0  0  0  0  0  0  0  0  0
    6.9653   -2.9633   -1.2720 H   0  0  0  0  0  0  0  0  0  0  0  0
    4.6378   -4.5589    0.0379 H   0  0  0  0  0  0  0  0  0  0  0  0
    5.5641   -3.2045    0.7057 H   0  0  0  0  0  0  0  0  0  0  0  0
    3.1221   -2.7000    1.1688 H   0  0  0  0  0  0  0  0  0  0  0  0
    2.7570   -1.2199    0.2724 H   0  0  0  0  0  0  0  0  0  0  0  0
    1.8859   -4.1338   -0.4040 H   0  0  0  0  0  0  0  0  0  0  0  0
   -0.8417   -3.9330   -0.8511 H   0  0  0  0  0  0  0  0  0  0  0  0
    1.2615   -0.3057   -0.5500 H   0  0  0  0  0  0  0  0  0  0  0  0
   -1.3513   -1.1892   -1.7866 H   0  0  0  0  0  0  0  0  0  0  0  0
    0.0152    1.4269   -0.9737 H   0  0  0  0  0  0  0  0  0  0  0  0
   -0.9128    1.3190   -2.4856 H   0  0  0  0  0  0  0  0  0  0  0  0
   -2.3368    2.2796   -0.6397 H   0  0  0  0  0  0  0  0  0  0  0  0
   -3.4259    0.6305   -2.2630 H   0  0  0  0  0  0  0  0  0  0  0  0
   -2.9507   -0.6670   -1.1480 H   0  0  0  0  0  0  0  0  0  0  0  0
   -4.8065   -0.3638    0.1172 H   0  0  0  0  0  0  0  0  0  0  0  0
   -5.2888    0.9337   -0.9992 H   0  0  0  0  0  0  0  0  0  0  0  0
   -5.1682    1.5761    1.3972 H   0  0  0  0  0  0  0  0  0  0  0  0
   -4.2826    2.6132    0.2248 H   0  0  0  0  0  0  0  0  0  0  0  0
   -2.6871    2.4457    1.8635 H   0  0  0  0  0  0  0  0  0  0  0  0
   -3.2413    0.9004    2.5284 H   0  0  0  0  0  0  0  0  0  0  0  0
   -0.9378    1.0858    1.2247 H   0  0  0  0  0  0  0  0  0  0  0  0
   -2.0130   -0.3240    0.9336 H   0  0  0  0  0  0  0  0  0  0  0  0
  1  2  1  0
  2  3  1  0
  3  4  2  0
  3  5  1  0
  5  6  1  0
  6  7  2  0
  7  8  1  0
  7  9  1  0
  9 10  2  0
 10 11  1  0
 11 12  1  0
 12 13  1  0
 13 14  1  0
 14 15  1  0
 15 16  1  0
 16 17  1  0
 17 12  1  0
  1 18  1  0
  1 19  1  0
  1 20  1  0
  2 21  1  0
  2 22  1  0
  5 23  1  0
  5 24  1  0
  6 25  1  0
  8 26  1  0
  9 27  1  0
 10 28  1  0
 11 29  1  0
 11 30  1  0
 12 31  1  0
 13 32  1  0
 13 33  1  0
 14 34  1  0
 14 35  1  0
 15 36  1  0
 15 37  1  0
 16 38  1  0
 16 39  1  0
 17 40  1  0
 17 41  1  0
M  END
$$$$

     RDKit          3D

 41 41  0  0  0  0  0  0  0  0999 V2000
   -4.2934    3.5905   -8.7624 C   0  0  0  0  0  0  0  0  0  0  0  0
   -2.8920    3.2546   -8.3679 C   0  0  0  0  0  0  0  0  0  0  0  0
   -2.8112    2.7409   -6.9782 C   0  0  0  0  0  0  0  0  0  0  0  0
   -3.7854    2.6210   -6.2809 O   0  0  0  0  0  0  0  0  0  0  0  0
   -1.4799    2.3506   -6.4005 C   0  0  0  0  0  0  0  0  0  0  0  0
   -1.4674    0.8937   -6.2761 C   0  0  0  0  0  0  0  0  0  0  0  0
   -1.3192    0.2821   -5.1344 C   0  0  0  0  0  0  0  0  0  0  0  0
   -1.3204   -1.1355   -5.1162 O   0  0  0  0  0  0  0  0  0  0  0  0
   -1.1544    0.9982   -3.8898 C   0  0  0  0  0  0  0  0  0  0  0  0
   -1.0045    0.3184   -2.7321 C   0  0  0  0  0  0  0  0  0  0  0  0
   -0.8320    0.9461   -1.4254 C   0  0  0  0  0  0  0  0  0  0  0  0
   -1.9999    0.4828   -0.5444 C   0  0  0  0  0  0  0  0  0  0  0  0
   -3.2546    0.9533   -1.2422 C   0  0  0  0  0  0  0  0  0  0  0  0
   -4.4967    0.7142   -0.4363 C   0  0  0  0  0  0  0  0  0  0  0  0
   -4.3413    1.0306    1.0130 C   0  0  0  0  0  0  0  0  0  0  0  0
   -3.0607    1.8076    1.2970 C   0  0  0  0  0  0  0  0  0  0  0  0
   -1.8730    1.0232    0.8445 C   0  0  0  0  0  0  0  0  0  0  0  0
   -4.6248    4.4627   -8.1636 H   0  0  0  0  0  0  0  0  0  0  0  0
   -5.0198    2.7861   -8.5918 H   0  0  0  0  0  0  0  0  0  0  0  0
   -4.3027    3.8087   -9.8568 H   0  0  0  0  0  0  0  0  0  0  0  0
   -2.4569    2.4783   -9.0326 H   0  0  0  0  0  0  0  0  0  0  0  0
   -2.2710    4.1541   -8.4907 H   0  0  0  0  0  0  0  0  0  0  0  0
   -1.3375    2.9181   -5.4952 H   0  0  0  0  0  0  0  0  0  0  0  0
   -0.6790    2.7106   -7.1198 H   0  0  0  0  0  0  0  0  0  0  0  0
   -1.5925    0.3140   -7.2207 H   0  0  0  0  0  0  0  0  0  0  0  0
   -2.0971   -1.5407   -4.5937 H   0  0  0  0  0  0  0  0  0  0  0  0
   -1.1404    2.0576   -3.8022 H   0  0  0  0  0  0  0  0  0  0  0  0
   -1.0182   -0.7522   -2.8196 H   0  0  0  0  0  0  0  0  0  0  0  0
   -0.7971    2.0419   -1.4694 H   0  0  0  0  0  0  0  0  0  0  0  0
    0.0895    0.5214   -0.9523 H   0  0  0  0  0  0  0  0  0  0  0  0
   -2.0513   -0.6224   -0.5187 H   0  0  0  0  0  0  0  0  0  0  0  0
   -3.3891    0.4506   -2.2206 H   0  0  0  0  0  0  0  0  0  0  0  0
   -3.1398    2.0514   -1.4867 H   0  0  0  0  0  0  0  0  0  0  0  0
   -5.2884    1.3767   -0.8426 H   0  0  0  0  0  0  0  0  0  0  0  0
   -4.8283   -0.3219   -0.6061 H   0  0  0  0  0  0  0  0  0  0  0  0
   -4.2487    0.0782    1.5793 H   0  0  0  0  0  0  0  0  0  0  0  0
   -5.1782    1.6214    1.3953 H   0  0  0  0  0  0  0  0  0  0  0  0
   -2.9732    1.9323    2.4032 H   0  0  0  0  0  0  0  0  0  0  0  0
   -3.0714    2.7824    0.7976 H   0  0  0  0  0  0  0  0  0  0  0  0
   -1.6896    0.2088    1.5915 H   0  0  0  0  0  0  0  0  0  0  0  0
   -0.9757    1.6962    0.8642 H   0  0  0  0  0  0  0  0  0  0  0  0
  1  2  1  0
  2  3  1  0
  3  4  2  0
  3  5  1  0
  5  6  1  0
  6  7  2  0
  7  8  1  0
  7  9  1  0
  9 10  2  0
 10 11  1  0
 11 12  1  0
 12 13  1  0
 13 14  1  0
 14 15  1  0
 15 16  1  0
 16 17  1  0
 17 12  1  0
  1 18  1  0
  1 19  1  0
  1 20  1  0
  2 21  1  0
  2 22  1  0
  5 23  1  0
  5 24  1  0
  6 25  1  0
  8 26  1  0
  9 27  1  0
 10 28  1  0
 11 29  1  0
 11 30  1  0
 12 31  1  0
 13 32  1  0
 13 33  1  0
 14 34  1  0
 14 35  1  0
 15 36  1  0
 15 37  1  0
 16 38  1  0
 16 39  1  0
 17 40  1  0
 17 41  1  0
M  END
$$$$

     RDKit          3D

 41 41  0  0  0  0  0  0  0  0999 V2000
    5.6081   -5.1941   -1.4333 C   0  0  0  0  0  0  0  0  0  0  0  0
    5.5461   -3.8093   -0.8544 C   0  0  0  0  0  0  0  0  0  0  0  0
    4.4404   -3.0676   -1.5083 C   0  0  0  0  0  0  0  0  0  0  0  0
    3.7533   -3.5849   -2.3604 O   0  0  0  0  0  0  0  0  0  0  0  0
    4.1780   -1.6679   -1.1060 C   0  0  0  0  0  0  0  0  0  0  0  0
    3.0671   -1.5685   -0.1371 C   0  0  0  0  0  0  0  0  0  0  0  0
    2.0006   -0.8503   -0.4753 C   0  0  0  0  0  0  0  0  0  0  0  0
    1.9565   -0.2168   -1.7186 O   0  0  0  0  0  0  0  0  0  0  0  0
    0.8639   -0.6953    0.4075 C   0  0  0  0  0  0  0  0  0  0  0  0
   -0.1908    0.0075    0.0835 C   0  0  0  0  0  0  0  0  0  0  0  0
   -1.4002    0.2464    0.8808 C   0  0  0  0  0  0  0  0  0  0  0  0
   -2.6995   -0.2399    0.2926 C   0  0  0  0  0  0  0  0  0  0  0  0
   -2.8575    0.4885   -1.0208 C   0  0  0  0  0  0  0  0  0  0  0  0
   -4.2470    0.8945   -1.3613 C   0  0  0  0  0  0  0  0  0  0  0  0
   -4.6172    1.9073   -0.2588 C   0  0  0  0  0  0  0  0  0  0  0  0
   -4.8094    1.0628    0.9581 C   0  0  0  0  0  0  0  0  0  0  0  0
   -3.7805    0.0638    1.2766 C   0  0  0  0  0  0  0  0  0  0  0  0
    6.2347   -5.8354   -0.7684 H   0  0  0  0  0  0  0  0  0  0  0  0
    6.0254   -5.1869   -2.4687 H   0  0  0  0  0  0  0  0  0  0  0  0
    4.5800   -5.6168   -1.5227 H   0  0  0  0  0  0  0  0  0  0  0  0
    6.5307   -3.3243   -1.0111 H   0  0  0  0  0  0  0  0  0  0  0  0
    5.3756   -3.9133    0.2437 H   0  0  0  0  0  0  0  0  0  0  0  0
    3.9526   -1.0187   -1.9731 H   0  0  0  0  0  0  0  0  0  0  0  0
    5.0718   -1.2281   -0.5830 H   0  0  0  0  0  0  0  0  0  0  0  0
    3.0911   -2.0556    0.8292 H   0  0  0  0  0  0  0  0  0  0  0  0
    1.9771   -0.7828   -2.5586 H   0  0  0  0  0  0  0  0  0  0  0  0
    0.8987   -1.2059    1.3457 H   0  0  0  0  0  0  0  0  0  0  0  0
   -0.1150    0.4644   -0.9376 H   0  0  0  0  0  0  0  0  0  0  0  0
   -1.2530   -0.1482    1.9225 H   0  0  0  0  0  0  0  0  0  0  0  0
   -1.4344    1.3691    1.0494 H   0  0  0  0  0  0  0  0  0  0  0  0
   -2.5989   -1.3182    0.0743 H   0  0  0  0  0  0  0  0  0  0  0  0
   -2.1814    1.3919   -1.0589 H   0  0  0  0  0  0  0  0  0  0  0  0
   -2.4863   -0.1698   -1.8348 H   0  0  0  0  0  0  0  0  0  0  0  0
   -4.9142    0.0331   -1.2307 H   0  0  0  0  0  0  0  0  0  0  0  0
   -4.2499    1.3471   -2.3497 H   0  0  0  0  0  0  0  0  0  0  0  0
   -3.7376    2.5866   -0.1888 H   0  0  0  0  0  0  0  0  0  0  0  0
   -5.5438    2.4308   -0.4861 H   0  0  0  0  0  0  0  0  0  0  0  0
   -4.9883    1.7182    1.8609 H   0  0  0  0  0  0  0  0  0  0  0  0
   -5.8099    0.5429    0.8004 H   0  0  0  0  0  0  0  0  0  0  0  0
   -4.3282   -0.9161    1.4494 H   0  0  0  0  0  0  0  0  0  0  0  0
   -3.3436    0.3109    2.2807 H   0  0  0  0  0  0  0  0  0  0  0  0
  1  2  1  0
  2  3  1  0
  3  4  2  0
  3  5  1  0
  5  6  1  0
  6  7  2  0
  7  8  1  0
  7  9  1  0
  9 10  2  0
 10 11  1  0
 11 12  1  0
 12 13  1  0
 13 14  1  0
 14 15  1  0
 15 16  1  0
 16 17  1  0
 17 12  1  0
  1 18  1  0
  1 19  1  0
  1 20  1  0
  2 21  1  0
  2 22  1  0
  5 23  1  0
  5 24  1  0
  6 25  1  0
  8 26  1  0
  9 27  1  0
 10 28  1  0
 11 29  1  0
 11 30  1  0
 12 31  1  0
 13 32  1  0
 13 33  1  0
 14 34  1  0
 14 35  1  0
 15 36  1  0
 15 37  1  0
 16 38  1  0
 16 39  1  0
 17 40  1  0
 17 41  1  0
M  END
$$$$

     RDKit          3D

 41 41  0  0  0  0  0  0  0  0999 V2000
    5.1361   -2.8370    5.0181 C   0  0  0  0  0  0  0  0  0  0  0  0
    3.7787   -2.8190    4.3538 C   0  0  0  0  0  0  0  0  0  0  0  0
    2.7737   -3.2933    5.3089 C   0  0  0  0  0  0  0  0  0  0  0  0
    3.1022   -3.6209    6.4287 O   0  0  0  0  0  0  0  0  0  0  0  0
    1.3195   -3.4079    4.9946 C   0  0  0  0  0  0  0  0  0  0  0  0
    0.9994   -2.9964    3.6297 C   0  0  0  0  0  0  0  0  0  0  0  0
    0.1656   -2.0013    3.3991 C   0  0  0  0  0  0  0  0  0  0  0  0
   -0.4232   -1.3271    4.4725 O   0  0  0  0  0  0  0  0  0  0  0  0
   -0.1506   -1.5946    2.0362 C   0  0  0  0  0  0  0  0  0  0  0  0
   -0.9887   -0.5954    1.8553 C   0  0  0  0  0  0  0  0  0  0  0  0
   -1.3134   -0.1775    0.4495 C   0  0  0  0  0  0  0  0  0  0  0  0
   -2.8127   -0.3497    0.2790 C   0  0  0  0  0  0  0  0  0  0  0  0
   -3.2155    0.0521   -1.1150 C   0  0  0  0  0  0  0  0  0  0  0  0
   -3.6864    1.4919   -1.1612 C   0  0  0  0  0  0  0  0  0  0  0  0
   -4.9110    1.6973   -0.2993 C   0  0  0  0  0  0  0  0  0  0  0  0
   -4.9089    0.7406    0.8620 C   0  0  0  0  0  0  0  0  0  0  0  0
   -3.4767    0.5449    1.3209 C   0  0  0  0  0  0  0  0  0  0  0  0
    5.2861   -1.8985    5.6050 H   0  0  0  0  0  0  0  0  0  0  0  0
    5.9510   -2.9757    4.2659 H   0  0  0  0  0  0  0  0  0  0  0  0
    5.1202   -3.6607    5.7639 H   0  0  0  0  0  0  0  0  0  0  0  0
    3.5445   -1.8361    3.8977 H   0  0  0  0  0  0  0  0  0  0  0  0
    3.8432   -3.5693    3.5127 H   0  0  0  0  0  0  0  0  0  0  0  0
    0.7862   -2.7802    5.7478 H   0  0  0  0  0  0  0  0  0  0  0  0
    1.0396   -4.4661    5.2177 H   0  0  0  0  0  0  0  0  0  0  0  0
    1.4429   -3.5037    2.7947 H   0  0  0  0  0  0  0  0  0  0  0  0
    0.1431   -0.8592    5.1477 H   0  0  0  0  0  0  0  0  0  0  0  0
    0.2759   -2.0808    1.1696 H   0  0  0  0  0  0  0  0  0  0  0  0
   -1.4379   -0.0816    2.6997 H   0  0  0  0  0  0  0  0  0  0  0  0
   -1.0139    0.8825    0.3466 H   0  0  0  0  0  0  0  0  0  0  0  0
   -0.7562   -0.8108   -0.2689 H   0  0  0  0  0  0  0  0  0  0  0  0
   -3.1389   -1.3745    0.4906 H   0  0  0  0  0  0  0  0  0  0  0  0
   -4.0149   -0.5944   -1.5391 H   0  0  0  0  0  0  0  0  0  0  0  0
   -2.3115   -0.0021   -1.7534 H   0  0  0  0  0  0  0  0  0  0  0  0
   -2.8396    2.1256   -0.8547 H   0  0  0  0  0  0  0  0  0  0  0  0
   -3.9510    1.7350   -2.1929 H   0  0  0  0  0  0  0  0  0  0  0  0
   -5.8460    1.5742   -0.9190 H   0  0  0  0  0  0  0  0  0  0  0  0
   -4.8683    2.7481    0.0780 H   0  0  0  0  0  0  0  0  0  0  0  0
   -5.5700    1.1070    1.6640 H   0  0  0  0  0  0  0  0  0  0  0  0
   -5.2601   -0.2691    0.5263 H   0  0  0  0  0  0  0  0  0  0  0  0
   -3.4373    0.0489    2.3168 H   0  0  0  0  0  0  0  0  0  0  0  0
   -2.9883    1.5335    1.3121 H   0  0  0  0  0  0  0  0  0  0  0  0
  1  2  1  0
  2  3  1  0
  3  4  2  0
  3  5  1  0
  5  6  1  0
  6  7  2  0
  7  8  1  0
  7  9  1  0
  9 10  2  0
 10 11  1  0
 11 12  1  0
 12 13  1  0
 13 14  1  0
 14 15  1  0
 15 16  1  0
 16 17  1  0
 17 12  1  0
  1 18  1  0
  1 19  1  0
  1 20  1  0
  2 21  1  0
  2 22  1  0
  5 23  1  0
  5 24  1  0
  6 25  1  0
  8 26  1  0
  9 27  1  0
 10 28  1  0
 11 29  1  0
 11 30  1  0
 12 31  1  0
 13 32  1  0
 13 33  1  0
 14 34  1  0
 14 35  1  0
 15 36  1  0
 15 37  1  0
 16 38  1  0
 16 39  1  0
 17 40  1  0
 17 41  1  0
M  END
$$$$

     RDKit          3D

 41 41  0  0  0  0  0  0  0  0999 V2000
    5.0002   -5.0905    0.3338 C   0  0  0  0  0  0  0  0  0  0  0  0
    4.9636   -3.8632   -0.5617 C   0  0  0  0  0  0  0  0  0  0  0  0
    3.5603   -3.4849   -0.8529 C   0  0  0  0  0  0  0  0  0  0  0  0
    2.6742   -4.1643   -0.3645 O   0  0  0  0  0  0  0  0  0  0  0  0
    3.2445   -2.2860   -1.7336 C   0  0  0  0  0  0  0  0  0  0  0  0
    2.9282   -1.1343   -0.9053 C   0  0  0  0  0  0  0  0  0  0  0  0
    1.7817   -0.4779   -0.9206 C   0  0  0  0  0  0  0  0  0  0  0  0
    1.6824    0.6277   -0.0202 O   0  0  0  0  0  0  0  0  0  0  0  0
    0.7331   -0.8858   -1.8044 C   0  0  0  0  0  0  0  0  0  0  0  0
   -0.4354   -0.3109   -1.9038 C   0  0  0  0  0  0  0  0  0  0  0  0
   -0.8926    0.8227   -1.1597 C   0  0  0  0  0  0  0  0  0  0  0  0
   -2.1193    0.5549   -0.3038 C   0  0  0  0  0  0  0  0  0  0  0  0
   -3.3060    0.1124   -1.1084 C   0  0  0  0  0  0  0  0  0  0  0  0
   -4.4647   -0.0397   -0.1383 C   0  0  0  0  0  0  0  0  0  0  0  0
   -4.0000    0.0456    1.3021 C   0  0  0  0  0  0  0  0  0  0  0  0
   -3.3446    1.3524    1.6297 C   0  0  0  0  0  0  0  0  0  0  0  0
   -2.5226    1.8192    0.4295 C   0  0  0  0  0  0  0  0  0  0  0  0
    5.9938   -5.2247    0.7762 H   0  0  0  0  0  0  0  0  0  0  0  0
    4.2746   -4.9300    1.1829 H   0  0  0  0  0  0  0  0  0  0  0  0
    4.7105   -5.9833   -0.2609 H   0  0  0  0  0  0  0  0  0  0  0  0
    5.4289   -3.0041   -0.0285 H   0  0  0  0  0  0  0  0  0  0  0  0
    5.5523   -4.0834   -1.4582 H   0  0  0  0  0  0  0  0  0  0  0  0
    2.2462   -2.5806   -2.2264 H   0  0  0  0  0  0  0  0  0  0  0  0
    3.9508   -2.1964   -2.5387 H   0  0  0  0  0  0  0  0  0  0  0  0
    3.7142   -0.7947   -0.2171 H   0  0  0  0  0  0  0  0  0  0  0  0
    2.3347    1.4018   -0.1776 H   0  0  0  0  0  0  0  0  0  0  0  0
    0.9548   -1.7564   -2.4486 H   0  0  0  0  0  0  0  0  0  0  0  0
   -1.1042   -0.7989   -2.6641 H   0  0  0  0  0  0  0  0  0  0  0  0
   -1.1157    1.7086   -1.7333 H   0  0  0  0  0  0  0  0  0  0  0  0
   -0.1009    1.1824   -0.4073 H   0  0  0  0  0  0  0  0  0  0  0  0
   -1.8472   -0.2601    0.4010 H   0  0  0  0  0  0  0  0  0  0  0  0
   -3.1529   -0.8581   -1.6188 H   0  0  0  0  0  0  0  0  0  0  0  0
   -3.6089    0.8594   -1.8577 H   0  0  0  0  0  0  0  0  0  0  0  0
   -4.9703   -1.0200   -0.2560 H   0  0  0  0  0  0  0  0  0  0  0  0
   -5.2379    0.7412   -0.2839 H   0  0  0  0  0  0  0  0  0  0  0  0
   -3.3941   -0.8335    1.6002 H   0  0  0  0  0  0  0  0  0  0  0  0
   -4.9372   -0.0230    1.9194 H   0  0  0  0  0  0  0  0  0  0  0  0
   -4.0644    2.1275    1.9583 H   0  0  0  0  0  0  0  0  0  0  0  0
   -2.6183    1.1628    2.4587 H   0  0  0  0  0  0  0  0  0  0  0  0
   -1.6688    2.4327    0.7255 H   0  0  0  0  0  0  0  0  0  0  0  0
   -3.2580    2.3847   -0.2143 H   0  0  0  0  0  0  0  0  0  0  0  0
  1  2  1  0
  2  3  1  0
  3  4  2  0
  3  5  1  0
  5  6  1  0
  6  7  2  0
  7  8  1  0
  7  9  1  0
  9 10  2  0
 10 11  1  0
 11 12  1  0
 12 13  1  0
 13 14  1  0
 14 15  1  0
 15 16  1  0
 16 17  1  0
 17 12  1  0
  1 18  1  0
  1 19  1  0
  1 20  1  0
  2 21  1  0
  2 22  1  0
  5 23  1  0
  5 24  1  0
  6 25  1  0
  8 26  1  0
  9 27  1  0
 10 28  1  0
 11 29  1  0
 11 30  1  0
 12 31  1  0
 13 32  1  0
 13 33  1  0
 14 34  1  0
 14 35  1  0
 15 36  1  0
 15 37  1  0
 16 38  1  0
 16 39  1  0
 17 40  1  0
 17 41  1  0
M  END
$$$$

     RDKit          3D

 41 41  0  0  0  0  0  0  0  0999 V2000
    6.5746    3.2692   -3.2082 C   0  0  0  0  0  0  0  0  0  0  0  0
    5.7563    3.2220   -1.9386 C   0  0  0  0  0  0  0  0  0  0  0  0
    4.5694    2.3725   -2.1534 C   0  0  0  0  0  0  0  0  0  0  0  0
    4.3899    1.8525   -3.2312 O   0  0  0  0  0  0  0  0  0  0  0  0
    3.5743    2.1317   -1.0768 C   0  0  0  0  0  0  0  0  0  0  0  0
    2.3917    2.9942   -1.2272 C   0  0  0  0  0  0  0  0  0  0  0  0
    1.1622    2.5570   -1.4006 C   0  0  0  0  0  0  0  0  0  0  0  0
    0.2205    3.5874   -1.5155 O   0  0  0  0  0  0  0  0  0  0  0  0
    0.8381    1.1600   -1.4625 C   0  0  0  0  0  0  0  0  0  0  0  0
   -0.3784    0.7254   -1.6379 C   0  0  0  0  0  0  0  0  0  0  0  0
   -1.5642    1.5034   -1.7959 C   0  0  0  0  0  0  0  0  0  0  0  0
   -2.6189    1.2676   -0.7297 C   0  0  0  0  0  0  0  0  0  0  0  0
   -3.0410   -0.2008   -0.7556 C   0  0  0  0  0  0  0  0  0  0  0  0
   -4.3446   -0.4075   -0.0378 C   0  0  0  0  0  0  0  0  0  0  0  0
   -4.4636    0.6454    1.0253 C   0  0  0  0  0  0  0  0  0  0  0  0
   -3.1303    0.9661    1.6571 C   0  0  0  0  0  0  0  0  0  0  0  0
   -2.1587    1.5739    0.6516 C   0  0  0  0  0  0  0  0  0  0  0  0
    7.3893    2.5045   -3.1784 H   0  0  0  0  0  0  0  0  0  0  0  0
    5.9192    2.9779   -4.0623 H   0  0  0  0  0  0  0  0  0  0  0  0
    7.0679    4.2481   -3.3592 H   0  0  0  0  0  0  0  0  0  0  0  0
    5.4664    4.2465   -1.6264 H   0  0  0  0  0  0  0  0  0  0  0  0
    6.4165    2.7393   -1.1614 H   0  0  0  0  0  0  0  0  0  0  0  0
    4.1247    2.3656   -0.1180 H   0  0  0  0  0  0  0  0  0  0  0  0
    3.3046    1.0753   -1.1008 H   0  0  0  0  0  0  0  0  0  0  0  0
    2.5847    4.0852   -1.1870 H   0  0  0  0  0  0  0  0  0  0  0  0
    0.3162    4.4972   -1.1274 H   0  0  0  0  0  0  0  0  0  0  0  0
    1.6506    0.3893   -1.3581 H   0  0  0  0  0  0  0  0  0  0  0  0
   -0.4890   -0.3780   -1.6662 H   0  0  0  0  0  0  0  0  0  0  0  0
   -1.5376    2.5551   -1.9940 H   0  0  0  0  0  0  0  0  0  0  0  0
   -2.0887    1.0799   -2.7439 H   0  0  0  0  0  0  0  0  0  0  0  0
   -3.5174    1.8759   -0.9477 H   0  0  0  0  0  0  0  0  0  0  0  0
   -3.0388   -0.5329   -1.7917 H   0  0  0  0  0  0  0  0  0  0  0  0
   -2.2636   -0.7833   -0.2068 H   0  0  0  0  0  0  0  0  0  0  0  0
   -4.3440   -1.4259    0.4320 H   0  0  0  0  0  0  0  0  0  0  0  0
   -5.1980   -0.2799   -0.7450 H   0  0  0  0  0  0  0  0  0  0  0  0
   -4.9532    1.5560    0.6350 H   0  0  0  0  0  0  0  0  0  0  0  0
   -5.1020    0.2275    1.8318 H   0  0  0  0  0  0  0  0  0  0  0  0
   -2.7429    0.0216    2.0908 H   0  0  0  0  0  0  0  0  0  0  0  0
   -3.2943    1.6735    2.4778 H   0  0  0  0  0  0  0  0  0  0  0  0
   -2.1974    2.6888    0.7822 H   0  0  0  0  0  0  0  0  0  0  0  0
   -1.1746    1.1624    0.9119 H   0  0  0  0  0  0  0  0  0  0  0  0
  1  2  1  0
  2  3  1  0
  3  4  2  0
  3  5  1  0
  5  6  1  0
  6  7  2  0
  7  8  1  0
  7  9  1  0
  9 10  2  0
 10 11  1  0
 11 12  1  0
 12 13  1  0
 13 14  1  0
 14 15  1  0
 15 16  1  0
 16 17  1  0
 17 12  1  0
  1 18  1  0
  1 19  1  0
  1 20  1  0
  2 21  1  0
  2 22  1  0
  5 23  1  0
  5 24  1  0
  6 25  1  0
  8 26  1  0
  9 27  1  0
 10 28  1  0
 11 29  1  0
 11 30  1  0
 12 31  1  0
 13 32  1  0
 13 33  1  0
 14 34  1  0
 14 35  1  0
 15 36  1  0
 15 37  1  0
 16 38  1  0
 16 39  1  0
 17 40  1  0
 17 41  1  0
M  END
$$$$

     RDKit          3D

 41 41  0  0  0  0  0  0  0  0999 V2000
    6.3397   -3.9876   -1.6061 C   0  0  0  0  0  0  0  0  0  0  0  0
    5.2263   -4.0838   -0.6086 C   0  0  0  0  0  0  0  0  0  0  0  0
    4.4909   -2.7844   -0.5353 C   0  0  0  0  0  0  0  0  0  0  0  0
    4.8464   -1.8678   -1.2370 O   0  0  0  0  0  0  0  0  0  0  0  0
    3.3331   -2.5880    0.3777 C   0  0  0  0  0  0  0  0  0  0  0  0
    2.0753   -2.7509   -0.3754 C   0  0  0  0  0  0  0  0  0  0  0  0
    1.1600   -1.7613   -0.4803 C   0  0  0  0  0  0  0  0  0  0  0  0
    1.5208   -0.6165    0.1749 O   0  0  0  0  0  0  0  0  0  0  0  0
   -0.0175   -2.0341   -1.2335 C   0  0  0  0  0  0  0  0  0  0  0  0
   -0.9809   -1.1834   -1.4224 C   0  0  0  0  0  0  0  0  0  0  0  0
   -1.0475    0.1767   -0.9176 C   0  0  0  0  0  0  0  0  0  0  0  0
   -2.2791    0.3394    0.0067 C   0  0  0  0  0  0  0  0  0  0  0  0
   -3.4737    0.0294   -0.8210 C   0  0  0  0  0  0  0  0  0  0  0  0
   -4.7032    0.3781   -0.0072 C   0  0  0  0  0  0  0  0  0  0  0  0
   -4.6895    1.9047    0.0719 C   0  0  0  0  0  0  0  0  0  0  0  0
   -3.5335    2.3379    0.9027 C   0  0  0  0  0  0  0  0  0  0  0  0
   -2.2514    1.6584    0.6552 C   0  0  0  0  0  0  0  0  0  0  0  0
    6.6808   -5.0179   -1.8422 H   0  0  0  0  0  0  0  0  0  0  0  0
    7.1675   -3.4055   -1.1561 H   0  0  0  0  0  0  0  0  0  0  0  0
    5.9832   -3.5406   -2.5402 H   0  0  0  0  0  0  0  0  0  0  0  0
    5.6138   -4.4048    0.3794 H   0  0  0  0  0  0  0  0  0  0  0  0
    4.4782   -4.8481   -0.9569 H   0  0  0  0  0  0  0  0  0  0  0  0
    3.4178   -1.5486    0.7699 H   0  0  0  0  0  0  0  0  0  0  0  0
    3.3424   -3.3122    1.2157 H   0  0  0  0  0  0  0  0  0  0  0  0
    1.8946   -3.6922   -0.8507 H   0  0  0  0  0  0  0  0  0  0  0  0
    2.3655   -0.1267   -0.1390 H   0  0  0  0  0  0  0  0  0  0  0  0
   -0.1273   -3.0355   -1.6921 H   0  0  0  0  0  0  0  0  0  0  0  0
   -1.8341   -1.5399   -2.0315 H   0  0  0  0  0  0  0  0  0  0  0  0
   -0.2053    0.5099   -0.3192 H   0  0  0  0  0  0  0  0  0  0  0  0
   -1.1635    0.9112   -1.7746 H   0  0  0  0  0  0  0  0  0  0  0  0
   -2.1623   -0.4906    0.7569 H   0  0  0  0  0  0  0  0  0  0  0  0
   -3.4915   -1.0684   -1.0041 H   0  0  0  0  0  0  0  0  0  0  0  0
   -3.5146    0.6052   -1.7755 H   0  0  0  0  0  0  0  0  0  0  0  0
   -4.5227    0.0272    1.0333 H   0  0  0  0  0  0  0  0  0  0  0  0
   -5.6344    0.0025   -0.4478 H   0  0  0  0  0  0  0  0  0  0  0  0
   -4.5813    2.2643   -0.9864 H   0  0  0  0  0  0  0  0  0  0  0  0
   -5.6304    2.2342    0.5247 H   0  0  0  0  0  0  0  0  0  0  0  0
   -3.8476    2.2407    1.9835 H   0  0  0  0  0  0  0  0  0  0  0  0
   -3.4020    3.4392    0.7500 H   0  0  0  0  0  0  0  0  0  0  0  0
   -1.5618    2.3292    0.0612 H   0  0  0  0  0  0  0  0  0  0  0  0
   -1.7161    1.5516    1.6458 H   0  0  0  0  0  0  0  0  0  0  0  0
  1  2  1  0
  2  3  1  0
  3  4  2  0
  3  5  1  0
  5  6  1  0
  6  7  2  0
  7  8  1  0
  7  9  1  0
  9 10  2  0
 10 11  1  0
 11 12  1  0
 12 13  1  0
 13 14  1  0
 14 15  1  0
 15 16  1  0
 16 17  1  0
 17 12  1  0
  1 18  1  0
  1 19  1  0
  1 20  1  0
  2 21  1  0
  2 22  1  0
  5 23  1  0
  5 24  1  0
  6 25  1  0
  8 26  1  0
  9 27  1  0
 10 28  1  0
 11 29  1  0
 11 30  1  0
 12 31  1  0
 13 32  1  0
 13 33  1  0
 14 34  1  0
 14 35  1  0
 15 36  1  0
 15 37  1  0
 16 38  1  0
 16 39  1  0
 17 40  1  0
 17 41  1  0
M  END
$$$$

     RDKit          3D

 41 41  0  0  0  0  0  0  0  0999 V2000
    2.3233   -6.6711    0.6149 C   0  0  0  0  0  0  0  0  0  0  0  0
    1.8147   -6.4042    2.0030 C   0  0  0  0  0  0  0  0  0  0  0  0
    1.1101   -5.0525    2.0785 C   0  0  0  0  0  0  0  0  0  0  0  0
   -0.0228   -5.0640    1.7238 O   0  0  0  0  0  0  0  0  0  0  0  0
    1.8866   -3.9601    2.5574 C   0  0  0  0  0  0  0  0  0  0  0  0
    1.4562   -2.5970    2.6474 C   0  0  0  0  0  0  0  0  0  0  0  0
    0.3752   -1.9632    2.2803 C   0  0  0  0  0  0  0  0  0  0  0  0
   -0.6040   -2.7129    1.6640 O   0  0  0  0  0  0  0  0  0  0  0  0
    0.1893   -0.5242    2.4991 C   0  0  0  0  0  0  0  0  0  0  0  0
   -0.8390    0.1779    2.1850 C   0  0  0  0  0  0  0  0  0  0  0  0
   -2.0301   -0.3265    1.5502 C   0  0  0  0  0  0  0  0  0  0  0  0
   -2.3001    0.2940    0.1854 C   0  0  0  0  0  0  0  0  0  0  0  0
   -3.5364   -0.2440   -0.4454 C   0  0  0  0  0  0  0  0  0  0  0  0
   -4.5140    0.8572   -0.7476 C   0  0  0  0  0  0  0  0  0  0  0  0
   -4.7702    1.6108    0.5621 C   0  0  0  0  0  0  0  0  0  0  0  0
   -3.5092    2.3324    0.9981 C   0  0  0  0  0  0  0  0  0  0  0  0
   -2.3005    1.7976    0.2558 C   0  0  0  0  0  0  0  0  0  0  0  0
    2.7697   -5.7776    0.1282 H   0  0  0  0  0  0  0  0  0  0  0  0
    3.1608   -7.4238    0.7238 H   0  0  0  0  0  0  0  0  0  0  0  0
    1.5612   -7.1693   -0.0153 H   0  0  0  0  0  0  0  0  0  0  0  0
    2.6867   -6.4354    2.6958 H   0  0  0  0  0  0  0  0  0  0  0  0
    1.1393   -7.2076    2.3040 H   0  0  0  0  0  0  0  0  0  0  0  0
    2.2090   -4.2472    3.6376 H   0  0  0  0  0  0  0  0  0  0  0  0
    2.9196   -4.0381    2.0533 H   0  0  0  0  0  0  0  0  0  0  0  0
    2.2004   -1.8923    3.1445 H   0  0  0  0  0  0  0  0  0  0  0  0
   -0.5577   -2.6752    0.6230 H   0  0  0  0  0  0  0  0  0  0  0  0
    1.0313    0.0013    2.9877 H   0  0  0  0  0  0  0  0  0  0  0  0
   -0.8083    1.2614    2.4226 H   0  0  0  0  0  0  0  0  0  0  0  0
   -2.9065    0.1293    2.1781 H   0  0  0  0  0  0  0  0  0  0  0  0
   -2.2522   -1.3744    1.5684 H   0  0  0  0  0  0  0  0  0  0  0  0
   -1.4260    0.0069   -0.4509 H   0  0  0  0  0  0  0  0  0  0  0  0
   -3.3051   -0.7557   -1.4175 H   0  0  0  0  0  0  0  0  0  0  0  0
   -4.0569   -0.9480    0.2371 H   0  0  0  0  0  0  0  0  0  0  0  0
   -5.4937    0.4194   -1.0619 H   0  0  0  0  0  0  0  0  0  0  0  0
   -4.0961    1.5334   -1.5081 H   0  0  0  0  0  0  0  0  0  0  0  0
   -5.6256    2.2911    0.3970 H   0  0  0  0  0  0  0  0  0  0  0  0
   -5.0526    0.8289    1.3084 H   0  0  0  0  0  0  0  0  0  0  0  0
   -3.5722    3.4140    0.7416 H   0  0  0  0  0  0  0  0  0  0  0  0
   -3.3704    2.1718    2.0682 H   0  0  0  0  0  0  0  0  0  0  0  0
   -2.3314    2.2268   -0.7708 H   0  0  0  0  0  0  0  0  0  0  0  0
   -1.3965    2.2073    0.7224 H   0  0  0  0  0  0  0  0  0  0  0  0
  1  2  1  0
  2  3  1  0
  3  4  2  0
  3  5  1  0
  5  6  1  0
  6  7  2  0
  7  8  1  0
  7  9  1  0
  9 10  2  0
 10 11  1  0
 11 12  1  0
 12 13  1  0
 13 14  1  0
 14 15  1  0
 15 16  1  0
 16 17  1  0
 17 12  1  0
  1 18  1  0
  1 19  1  0
  1 20  1  0
  2 21  1  0
  2 22  1  0
  5 23  1  0
  5 24  1  0
  6 25  1  0
  8 26  1  0
  9 27  1  0
 10 28  1  0
 11 29  1  0
 11 30  1  0
 12 31  1  0
 13 32  1  0
 13 33  1  0
 14 34  1  0
 14 35  1  0
 15 36  1  0
 15 37  1  0
 16 38  1  0
 16 39  1  0
 17 40  1  0
 17 41  1  0
M  END
$$$$

     RDKit          3D

 41 41  0  0  0  0  0  0  0  0999 V2000
    4.5514   -3.2310   -4.1289 C   0  0  0  0  0  0  0  0  0  0  0  0
    4.8670   -2.9965   -2.6533 C   0  0  0  0  0  0  0  0  0  0  0  0
    4.1961   -4.0045   -1.8045 C   0  0  0  0  0  0  0  0  0  0  0  0
    4.4874   -5.3765   -1.9856 O   0  0  0  0  0  0  0  0  0  0  0  0
    3.3398   -3.6274   -0.8936 C   0  0  0  0  0  0  0  0  0  0  0  0
    2.9162   -2.2579   -0.5635 C   0  0  0  0  0  0  0  0  0  0  0  0
    1.4442   -2.1360   -0.7809 C   0  0  0  0  0  0  0  0  0  0  0  0
    0.7902   -3.1209   -1.1708 O   0  0  0  0  0  0  0  0  0  0  0  0
    0.8345   -0.8291   -0.5161 C   0  0  0  0  0  0  0  0  0  0  0  0
   -0.4648   -0.6196   -0.6742 C   0  0  0  0  0  0  0  0  0  0  0  0
   -1.0969    0.7001   -0.4096 C   0  0  0  0  0  0  0  0  0  0  0  0
   -2.1147    0.5204    0.6830 C   0  0  0  0  0  0  0  0  0  0  0  0
   -3.1941   -0.4577    0.3234 C   0  0  0  0  0  0  0  0  0  0  0  0
   -4.1297    0.0273   -0.7346 C   0  0  0  0  0  0  0  0  0  0  0  0
   -4.5652    1.4487   -0.5827 C   0  0  0  0  0  0  0  0  0  0  0  0
   -3.5059    2.3705   -0.0636 C   0  0  0  0  0  0  0  0  0  0  0  0
   -2.7569    1.8022    1.1123 C   0  0  0  0  0  0  0  0  0  0  0  0
    3.4344   -3.2714   -4.1876 H   0  0  0  0  0  0  0  0  0  0  0  0
    4.9786   -2.4348   -4.7722 H   0  0  0  0  0  0  0  0  0  0  0  0
    4.9581   -4.1998   -4.4660 H   0  0  0  0  0  0  0  0  0  0  0  0
    4.3704   -1.9994   -2.4166 H   0  0  0  0  0  0  0  0  0  0  0  0
    5.9343   -2.8539   -2.4515 H   0  0  0  0  0  0  0  0  0  0  0  0
    3.8212   -5.9399   -2.5000 H   0  0  0  0  0  0  0  0  0  0  0  0
    2.8852   -4.4369   -0.3068 H   0  0  0  0  0  0  0  0  0  0  0  0
    3.1171   -2.1404    0.5526 H   0  0  0  0  0  0  0  0  0  0  0  0
    3.4923   -1.4518   -1.0179 H   0  0  0  0  0  0  0  0  0  0  0  0
    1.4161    0.0164   -0.1819 H   0  0  0  0  0  0  0  0  0  0  0  0
   -1.0658   -1.4388   -1.0043 H   0  0  0  0  0  0  0  0  0  0  0  0
   -1.6464    1.0544   -1.3136 H   0  0  0  0  0  0  0  0  0  0  0  0
   -0.3379    1.4607   -0.1894 H   0  0  0  0  0  0  0  0  0  0  0  0
   -1.5751    0.1004    1.5663 H   0  0  0  0  0  0  0  0  0  0  0  0
   -3.6976   -0.7773    1.2561 H   0  0  0  0  0  0  0  0  0  0  0  0
   -2.6797   -1.3738   -0.0778 H   0  0  0  0  0  0  0  0  0  0  0  0
   -3.7023   -0.1516   -1.7534 H   0  0  0  0  0  0  0  0  0  0  0  0
   -5.0440   -0.6077   -0.6896 H   0  0  0  0  0  0  0  0  0  0  0  0
   -5.4499    1.5443    0.1017 H   0  0  0  0  0  0  0  0  0  0  0  0
   -4.9034    1.8138   -1.5739 H   0  0  0  0  0  0  0  0  0  0  0  0
   -4.0045    3.3044    0.2998 H   0  0  0  0  0  0  0  0  0  0  0  0
   -2.8135    2.6923   -0.8678 H   0  0  0  0  0  0  0  0  0  0  0  0
   -3.4821    1.5663    1.9116 H   0  0  0  0  0  0  0  0  0  0  0  0
   -2.0627    2.5633    1.4794 H   0  0  0  0  0  0  0  0  0  0  0  0
  1  2  1  0
  2  3  1  0
  3  4  1  0
  3  5  2  0
  5  6  1  0
  6  7  1  0
  7  8  2  0
  7  9  1  0
  9 10  2  0
 10 11  1  0
 11 12  1  0
 12 13  1  0
 13 14  1  0
 14 15  1  0
 15 16  1  0
 16 17  1  0
 17 12  1  0
  1 18  1  0
  1 19  1  0
  1 20  1  0
  2 21  1  0
  2 22  1  0
  4 23  1  0
  5 24  1  0
  6 25  1  0
  6 26  1  0
  9 27  1  0
 10 28  1  0
 11 29  1  0
 11 30  1  0
 12 31  1  0
 13 32  1  0
 13 33  1  0
 14 34  1  0
 14 35  1  0
 15 36  1  0
 15 37  1  0
 16 38  1  0
 16 39  1  0
 17 40  1  0
 17 41  1  0
M  END
$$$$

     RDKit          3D

 41 41  0  0  0  0  0  0  0  0999 V2000
    5.8441   -4.8849   -2.3204 C   0  0  0  0  0  0  0  0  0  0  0  0
    4.3930   -4.6711   -2.6742 C   0  0  0  0  0  0  0  0  0  0  0  0
    4.0583   -3.2468   -2.3616 C   0  0  0  0  0  0  0  0  0  0  0  0
    4.7196   -2.1963   -2.9723 O   0  0  0  0  0  0  0  0  0  0  0  0
    3.0959   -2.9681   -1.4695 C   0  0  0  0  0  0  0  0  0  0  0  0
    2.7220   -1.5558   -1.1201 C   0  0  0  0  0  0  0  0  0  0  0  0
    1.3114   -1.4100   -1.4812 C   0  0  0  0  0  0  0  0  0  0  0  0
    0.7380   -2.4303   -1.9644 O   0  0  0  0  0  0  0  0  0  0  0  0
    0.5668   -0.1911   -1.3141 C   0  0  0  0  0  0  0  0  0  0  0  0
   -0.6874   -0.0592   -1.6295 C   0  0  0  0  0  0  0  0  0  0  0  0
   -1.3791    1.2475   -1.4199 C   0  0  0  0  0  0  0  0  0  0  0  0
   -2.5433    1.1342   -0.4597 C   0  0  0  0  0  0  0  0  0  0  0  0
   -3.5869    0.1630   -0.9605 C   0  0  0  0  0  0  0  0  0  0  0  0
   -4.8753    0.4593   -0.2464 C   0  0  0  0  0  0  0  0  0  0  0  0
   -4.6160    1.2322    0.9989 C   0  0  0  0  0  0  0  0  0  0  0  0
   -3.4067    0.8165    1.7789 C   0  0  0  0  0  0  0  0  0  0  0  0
   -2.1538    0.7447    0.9245 C   0  0  0  0  0  0  0  0  0  0  0  0
    6.0264   -4.5586   -1.2621 H   0  0  0  0  0  0  0  0  0  0  0  0
    6.4793   -4.2547   -2.9712 H   0  0  0  0  0  0  0  0  0  0  0  0
    6.0843   -5.9690   -2.4173 H   0  0  0  0  0  0  0  0  0  0  0  0
    4.2817   -4.8747   -3.7606 H   0  0  0  0  0  0  0  0  0  0  0  0
    3.7062   -5.3870   -2.1645 H   0  0  0  0  0  0  0  0  0  0  0  0
    5.4536   -1.6472   -2.5540 H   0  0  0  0  0  0  0  0  0  0  0  0
    2.6017   -3.8122   -1.0178 H   0  0  0  0  0  0  0  0  0  0  0  0
    2.8753   -1.3661   -0.0453 H   0  0  0  0  0  0  0  0  0  0  0  0
    3.3094   -0.8387   -1.7420 H   0  0  0  0  0  0  0  0  0  0  0  0
    1.0495    0.7195   -0.8944 H   0  0  0  0  0  0  0  0  0  0  0  0
   -1.2924   -0.8467   -2.0431 H   0  0  0  0  0  0  0  0  0  0  0  0
   -0.6841    1.9764   -0.9816 H   0  0  0  0  0  0  0  0  0  0  0  0
   -1.7598    1.5760   -2.3885 H   0  0  0  0  0  0  0  0  0  0  0  0
   -2.9688    2.1787   -0.4145 H   0  0  0  0  0  0  0  0  0  0  0  0
   -3.7032    0.2138   -2.0681 H   0  0  0  0  0  0  0  0  0  0  0  0
   -3.2873   -0.8836   -0.6677 H   0  0  0  0  0  0  0  0  0  0  0  0
   -5.4859   -0.4570   -0.0766 H   0  0  0  0  0  0  0  0  0  0  0  0
   -5.4694    1.1175   -0.9424 H   0  0  0  0  0  0  0  0  0  0  0  0
   -5.4866    1.0915    1.6997 H   0  0  0  0  0  0  0  0  0  0  0  0
   -4.5520    2.3389    0.8197 H   0  0  0  0  0  0  0  0  0  0  0  0
   -3.2226    1.6493    2.5204 H   0  0  0  0  0  0  0  0  0  0  0  0
   -3.5536   -0.1026    2.3830 H   0  0  0  0  0  0  0  0  0  0  0  0
   -1.3673    1.4718    1.2532 H   0  0  0  0  0  0  0  0  0  0  0  0
   -1.6937   -0.2679    0.9812 H   0  0  0  0  0  0  0  0  0  0  0  0
  1  2  1  0
  2  3  1  0
  3  4  1  0
  3  5  2  0
  5  6  1  0
  6  7  1  0
  7  8  2  0
  7  9  1  0
  9 10  2  0
 10 11  1  0
 11 12  1  0
 12 13  1  0
 13 14  1  0
 14 15  1  0
 15 16  1  0
 16 17  1  0
 17 12  1  0
  1 18  1  0
  1 19  1  0
  1 20  1  0
  2 21  1  0
  2 22  1  0
  4 23  1  0
  5 24  1  0
  6 25  1  0
  6 26  1  0
  9 27  1  0
 10 28  1  0
 11 29  1  0
 11 30  1  0
 12 31  1  0
 13 32  1  0
 13 33  1  0
 14 34  1  0
 14 35  1  0
 15 36  1  0
 15 37  1  0
 16 38  1  0
 16 39  1  0
 17 40  1  0
 17 41  1  0
M  END
$$$$

     RDKit          3D

 41 41  0  0  0  0  0  0  0  0999 V2000
   -4.0804   -2.1395   -9.4243 C   0  0  0  0  0  0  0  0  0  0  0  0
   -4.3262   -3.2076   -8.4050 C   0  0  0  0  0  0  0  0  0  0  0  0
   -4.5290   -2.6407   -7.0319 C   0  0  0  0  0  0  0  0  0  0  0  0
   -5.5515   -1.7606   -6.7456 O   0  0  0  0  0  0  0  0  0  0  0  0
   -3.7181   -2.9808   -6.0576 C   0  0  0  0  0  0  0  0  0  0  0  0
   -3.8860   -2.4372   -4.6715 C   0  0  0  0  0  0  0  0  0  0  0  0
   -2.6667   -1.7023   -4.2901 C   0  0  0  0  0  0  0  0  0  0  0  0
   -1.6937   -1.6020   -5.0707 O   0  0  0  0  0  0  0  0  0  0  0  0
   -2.5910   -1.0728   -2.9636 C   0  0  0  0  0  0  0  0  0  0  0  0
   -1.5059   -0.4157   -2.6179 C   0  0  0  0  0  0  0  0  0  0  0  0
   -1.2765    0.2659   -1.3444 C   0  0  0  0  0  0  0  0  0  0  0  0
   -2.4328    0.2585   -0.4197 C   0  0  0  0  0  0  0  0  0  0  0  0
   -3.6332    0.9990   -0.9683 C   0  0  0  0  0  0  0  0  0  0  0  0
   -4.8545    0.4220   -0.2894 C   0  0  0  0  0  0  0  0  0  0  0  0
   -4.6617    0.6239    1.1966 C   0  0  0  0  0  0  0  0  0  0  0  0
   -3.4374    1.3775    1.5757 C   0  0  0  0  0  0  0  0  0  0  0  0
   -2.1624    0.8690    0.9408 C   0  0  0  0  0  0  0  0  0  0  0  0
   -3.0135   -2.2493   -9.7627 H   0  0  0  0  0  0  0  0  0  0  0  0
   -4.2347   -1.1142   -9.0089 H   0  0  0  0  0  0  0  0  0  0  0  0
   -4.7588   -2.2285  -10.2863 H   0  0  0  0  0  0  0  0  0  0  0  0
   -3.5204   -3.9577   -8.3694 H   0  0  0  0  0  0  0  0  0  0  0  0
   -5.2758   -3.7365   -8.6906 H   0  0  0  0  0  0  0  0  0  0  0  0
   -5.5196   -0.7926   -7.0506 H   0  0  0  0  0  0  0  0  0  0  0  0
   -2.9004   -3.6645   -6.2186 H   0  0  0  0  0  0  0  0  0  0  0  0
   -4.7372   -1.7200   -4.6286 H   0  0  0  0  0  0  0  0  0  0  0  0
   -4.0892   -3.3044   -4.0196 H   0  0  0  0  0  0  0  0  0  0  0  0
   -3.4225   -1.1952   -2.3041 H   0  0  0  0  0  0  0  0  0  0  0  0
   -0.6634   -0.3529   -3.3390 H   0  0  0  0  0  0  0  0  0  0  0  0
   -0.9917    1.3345   -1.6143 H   0  0  0  0  0  0  0  0  0  0  0  0
   -0.3514   -0.1167   -0.8432 H   0  0  0  0  0  0  0  0  0  0  0  0
   -2.7894   -0.7853   -0.1907 H   0  0  0  0  0  0  0  0  0  0  0  0
   -3.5953    2.0788   -0.5740 H   0  0  0  0  0  0  0  0  0  0  0  0
   -3.6413    1.0080   -2.0478 H   0  0  0  0  0  0  0  0  0  0  0  0
   -4.8963   -0.6543   -0.5400 H   0  0  0  0  0  0  0  0  0  0  0  0
   -5.7706    0.9165   -0.6697 H   0  0  0  0  0  0  0  0  0  0  0  0
   -4.6776   -0.3742    1.6914 H   0  0  0  0  0  0  0  0  0  0  0  0
   -5.5385    1.2019    1.5539 H   0  0  0  0  0  0  0  0  0  0  0  0
   -3.3099    1.2340    2.6882 H   0  0  0  0  0  0  0  0  0  0  0  0
   -3.5213    2.4526    1.4262 H   0  0  0  0  0  0  0  0  0  0  0  0
   -1.4738    1.7337    0.8506 H   0  0  0  0  0  0  0  0  0  0  0  0
   -1.6729    0.1391    1.6080 H   0  0  0  0  0  0  0  0  0  0  0  0
  1  2  1  0
  2  3  1  0
  3  4  1  0
  3  5  2  0
  5  6  1  0
  6  7  1  0
  7  8  2  0
  7  9  1  0
  9 10  2  0
 10 11  1  0
 11 12  1  0
 12 13  1  0
 13 14  1  0
 14 15  1  0
 15 16  1  0
 16 17  1  0
 17 12  1  0
  1 18  1  0
  1 19  1  0
  1 20  1  0
  2 21  1  0
  2 22  1  0
  4 23  1  0
  5 24  1  0
  6 25  1  0
  6 26  1  0
  9 27  1  0
 10 28  1  0
 11 29  1  0
 11 30  1  0
 12 31  1  0
 13 32  1  0
 13 33  1  0
 14 34  1  0
 14 35  1  0
 15 36  1  0
 15 37  1  0
 16 38  1  0
 16 39  1  0
 17 40  1  0
 17 41  1  0
M  END
$$$$

     RDKit          3D

 41 41  0  0  0  0  0  0  0  0999 V2000
    2.5901   -4.0454   -3.3514 C   0  0  0  0  0  0  0  0  0  0  0  0
    3.6389   -3.0960   -2.7988 C   0  0  0  0  0  0  0  0  0  0  0  0
    3.8345   -3.2408   -1.3639 C   0  0  0  0  0  0  0  0  0  0  0  0
    4.2582   -4.4895   -0.8388 O   0  0  0  0  0  0  0  0  0  0  0  0
    3.6560   -2.3082   -0.4600 C   0  0  0  0  0  0  0  0  0  0  0  0
    3.2184   -0.9532   -0.8369 C   0  0  0  0  0  0  0  0  0  0  0  0
    1.9042   -0.6753   -0.1538 C   0  0  0  0  0  0  0  0  0  0  0  0
    1.4452   -1.5725    0.5760 O   0  0  0  0  0  0  0  0  0  0  0  0
    1.2630    0.5823   -0.3758 C   0  0  0  0  0  0  0  0  0  0  0  0
    0.1387    1.0263    0.1119 C   0  0  0  0  0  0  0  0  0  0  0  0
   -0.6870    0.2346    1.0247 C   0  0  0  0  0  0  0  0  0  0  0  0
   -2.0366    0.0351    0.3349 C   0  0  0  0  0  0  0  0  0  0  0  0
   -2.6996    1.3558    0.0527 C   0  0  0  0  0  0  0  0  0  0  0  0
   -4.1632    1.0973   -0.2331 C   0  0  0  0  0  0  0  0  0  0  0  0
   -4.2809   -0.1843   -1.0033 C   0  0  0  0  0  0  0  0  0  0  0  0
   -3.0504   -0.4664   -1.8334 C   0  0  0  0  0  0  0  0  0  0  0  0
   -1.8183   -0.6626   -0.9769 C   0  0  0  0  0  0  0  0  0  0  0  0
    1.6334   -3.9628   -2.7940 H   0  0  0  0  0  0  0  0  0  0  0  0
    2.3946   -3.7591   -4.4028 H   0  0  0  0  0  0  0  0  0  0  0  0
    2.9071   -5.0857   -3.3329 H   0  0  0  0  0  0  0  0  0  0  0  0
    3.1394   -2.0681   -2.9304 H   0  0  0  0  0  0  0  0  0  0  0  0
    4.5157   -3.0226   -3.4390 H   0  0  0  0  0  0  0  0  0  0  0  0
    3.5359   -5.0538   -0.4182 H   0  0  0  0  0  0  0  0  0  0  0  0
    3.8322   -2.5509    0.6188 H   0  0  0  0  0  0  0  0  0  0  0  0
    3.8941   -0.1805   -0.4421 H   0  0  0  0  0  0  0  0  0  0  0  0
    3.0962   -0.8627   -1.9429 H   0  0  0  0  0  0  0  0  0  0  0  0
    1.7666    1.2947   -1.0529 H   0  0  0  0  0  0  0  0  0  0  0  0
   -0.2561    2.0224   -0.1332 H   0  0  0  0  0  0  0  0  0  0  0  0
   -0.8567    0.5940    2.0168 H   0  0  0  0  0  0  0  0  0  0  0  0
   -0.2104   -0.7919    1.0483 H   0  0  0  0  0  0  0  0  0  0  0  0
   -2.7024   -0.5721    0.9532 H   0  0  0  0  0  0  0  0  0  0  0  0
   -2.1920    1.8597   -0.7857 H   0  0  0  0  0  0  0  0  0  0  0  0
   -2.6247    2.0301    0.9337 H   0  0  0  0  0  0  0  0  0  0  0  0
   -4.6371    1.9504   -0.7653 H   0  0  0  0  0  0  0  0  0  0  0  0
   -4.6705    0.9530    0.7429 H   0  0  0  0  0  0  0  0  0  0  0  0
   -4.4436   -1.0496   -0.3312 H   0  0  0  0  0  0  0  0  0  0  0  0
   -5.1416   -0.1448   -1.7035 H   0  0  0  0  0  0  0  0  0  0  0  0
   -3.2397   -1.4190   -2.3684 H   0  0  0  0  0  0  0  0  0  0  0  0
   -2.8494    0.3706   -2.5188 H   0  0  0  0  0  0  0  0  0  0  0  0
   -0.9338   -0.1779   -1.4636 H   0  0  0  0  0  0  0  0  0  0  0  0
   -1.6272   -1.7595   -0.8085 H   0  0  0  0  0  0  0  0  0  0  0  0
  1  2  1  0
  2  3  1  0
  3  4  1  0
  3  5  2  0
  5  6  1  0
  6  7  1  0
  7  8  2  0
  7  9  1  0
  9 10  2  0
 10 11  1  0
 11 12  1  0
 12 13  1  0
 13 14  1  0
 14 15  1  0
 15 16  1  0
 16 17  1  0
 17 12  1  0
  1 18  1  0
  1 19  1  0
  1 20  1  0
  2 21  1  0
  2 22  1  0
  4 23  1  0
  5 24  1  0
  6 25  1  0
  6 26  1  0
  9 27  1  0
 10 28  1  0
 11 29  1  0
 11 30  1  0
 12 31  1  0
 13 32  1  0
 13 33  1  0
 14 34  1  0
 14 35  1  0
 15 36  1  0
 15 37  1  0
 16 38  1  0
 16 39  1  0
 17 40  1  0
 17 41  1  0
M  END
$$$$

     RDKit          3D

 41 41  0  0  0  0  0  0  0  0999 V2000
    2.3719    0.0670    4.1650 C   0  0  0  0  0  0  0  0  0  0  0  0
    3.1841   -0.1955    2.9061 C   0  0  0  0  0  0  0  0  0  0  0  0
    3.8238   -1.5095    2.8792 C   0  0  0  0  0  0  0  0  0  0  0  0
    4.8815   -1.7563    3.8409 O   0  0  0  0  0  0  0  0  0  0  0  0
    3.4971   -2.4438    2.0548 C   0  0  0  0  0  0  0  0  0  0  0  0
    2.5055   -2.4688    1.0295 C   0  0  0  0  0  0  0  0  0  0  0  0
    1.5283   -1.4192    0.8523 C   0  0  0  0  0  0  0  0  0  0  0  0
    0.6799   -1.2660    1.7596 O   0  0  0  0  0  0  0  0  0  0  0  0
    1.4947   -0.5651   -0.3021 C   0  0  0  0  0  0  0  0  0  0  0  0
    0.6282    0.3950   -0.4734 C   0  0  0  0  0  0  0  0  0  0  0  0
   -0.4481    0.7972    0.4270 C   0  0  0  0  0  0  0  0  0  0  0  0
   -1.7691    0.6279   -0.3649 C   0  0  0  0  0  0  0  0  0  0  0  0
   -2.8711    1.0471    0.5793 C   0  0  0  0  0  0  0  0  0  0  0  0
   -4.2081    0.8511   -0.0851 C   0  0  0  0  0  0  0  0  0  0  0  0
   -4.0078    0.3872   -1.5183 C   0  0  0  0  0  0  0  0  0  0  0  0
   -3.2177   -0.9104   -1.5633 C   0  0  0  0  0  0  0  0  0  0  0  0
   -1.9753   -0.8281   -0.7068 C   0  0  0  0  0  0  0  0  0  0  0  0
    2.0498    1.1447    4.0939 H   0  0  0  0  0  0  0  0  0  0  0  0
    2.9981    0.0005    5.0720 H   0  0  0  0  0  0  0  0  0  0  0  0
    1.5240   -0.6030    4.2899 H   0  0  0  0  0  0  0  0  0  0  0  0
    2.8151    0.2409    2.0019 H   0  0  0  0  0  0  0  0  0  0  0  0
    4.1023    0.5210    3.1146 H   0  0  0  0  0  0  0  0  0  0  0  0
    4.7937   -2.6702    4.2710 H   0  0  0  0  0  0  0  0  0  0  0  0
    4.1153   -3.3878    2.1959 H   0  0  0  0  0  0  0  0  0  0  0  0
    3.0762   -2.5203    0.0330 H   0  0  0  0  0  0  0  0  0  0  0  0
    1.9786   -3.5011    0.9696 H   0  0  0  0  0  0  0  0  0  0  0  0
    2.2421   -0.7402   -1.0727 H   0  0  0  0  0  0  0  0  0  0  0  0
    0.7608    0.9499   -1.4357 H   0  0  0  0  0  0  0  0  0  0  0  0
   -0.6089    0.2877    1.3501 H   0  0  0  0  0  0  0  0  0  0  0  0
   -0.4405    1.9063    0.6273 H   0  0  0  0  0  0  0  0  0  0  0  0
   -1.6754    1.2805   -1.2378 H   0  0  0  0  0  0  0  0  0  0  0  0
   -2.8050    0.3772    1.4720 H   0  0  0  0  0  0  0  0  0  0  0  0
   -2.7296    2.0889    0.9512 H   0  0  0  0  0  0  0  0  0  0  0  0
   -4.8055    0.1089    0.4693 H   0  0  0  0  0  0  0  0  0  0  0  0
   -4.7538    1.8117   -0.1208 H   0  0  0  0  0  0  0  0  0  0  0  0
   -4.9960    0.1624   -1.9725 H   0  0  0  0  0  0  0  0  0  0  0  0
   -3.5123    1.1591   -2.1160 H   0  0  0  0  0  0  0  0  0  0  0  0
   -2.9477   -1.0809   -2.6302 H   0  0  0  0  0  0  0  0  0  0  0  0
   -3.8794   -1.7326   -1.2591 H   0  0  0  0  0  0  0  0  0  0  0  0
   -2.1215   -1.3786    0.2382 H   0  0  0  0  0  0  0  0  0  0  0  0
   -1.1344   -1.2827   -1.2309 H   0  0  0  0  0  0  0  0  0  0  0  0
  1  2  1  0
  2  3  1  0
  3  4  1  0
  3  5  2  0
  5  6  1  0
  6  7  1  0
  7  8  2  0
  7  9  1  0
  9 10  2  0
 10 11  1  0
 11 12  1  0
 12 13  1  0
 13 14  1  0
 14 15  1  0
 15 16  1  0
 16 17  1  0
 17 12  1  0
  1 18  1  0
  1 19  1  0
  1 20  1  0
  2 21  1  0
  2 22  1  0
  4 23  1  0
  5 24  1  0
  6 25  1  0
  6 26  1  0
  9 27  1  0
 10 28  1  0
 11 29  1  0
 11 30  1  0
 12 31  1  0
 13 32  1  0
 13 33  1  0
 14 34  1  0
 14 35  1  0
 15 36  1  0
 15 37  1  0
 16 38  1  0
 16 39  1  0
 17 40  1  0
 17 41  1  0
M  END
$$$$

     RDKit          3D

 41 41  0  0  0  0  0  0  0  0999 V2000
    5.9023   -3.3707   -1.4169 C   0  0  0  0  0  0  0  0  0  0  0  0
    4.9790   -2.1579   -1.3863 C   0  0  0  0  0  0  0  0  0  0  0  0
    3.5842   -2.6992   -1.4151 C   0  0  0  0  0  0  0  0  0  0  0  0
    3.2378   -3.5435   -0.3481 O   0  0  0  0  0  0  0  0  0  0  0  0
    2.7717   -2.3857   -2.3836 C   0  0  0  0  0  0  0  0  0  0  0  0
    1.3685   -2.9580   -2.3708 C   0  0  0  0  0  0  0  0  0  0  0  0
    0.3674   -1.8997   -2.3192 C   0  0  0  0  0  0  0  0  0  0  0  0
    0.9153   -0.6974   -2.3093 O   0  0  0  0  0  0  0  0  0  0  0  0
   -1.0549   -1.9364   -2.2801 C   0  0  0  0  0  0  0  0  0  0  0  0
   -1.8532   -0.9230   -2.2396 C   0  0  0  0  0  0  0  0  0  0  0  0
   -1.5096    0.4884   -2.2257 C   0  0  0  0  0  0  0  0  0  0  0  0
   -2.0839    1.0339   -0.8919 C   0  0  0  0  0  0  0  0  0  0  0  0
   -3.5650    0.8482   -0.8268 C   0  0  0  0  0  0  0  0  0  0  0  0
   -4.0255    1.4073    0.5062 C   0  0  0  0  0  0  0  0  0  0  0  0
   -3.4505    0.5226    1.5908 C   0  0  0  0  0  0  0  0  0  0  0  0
   -1.9466    0.6973    1.5785 C   0  0  0  0  0  0  0  0  0  0  0  0
   -1.4552    0.2549    0.2114 C   0  0  0  0  0  0  0  0  0  0  0  0
    5.6028   -3.9900   -2.2873 H   0  0  0  0  0  0  0  0  0  0  0  0
    5.6846   -3.9582   -0.5104 H   0  0  0  0  0  0  0  0  0  0  0  0
    6.9520   -3.0451   -1.4895 H   0  0  0  0  0  0  0  0  0  0  0  0
    5.0946   -1.6004   -0.4426 H   0  0  0  0  0  0  0  0  0  0  0  0
    5.1528   -1.5311   -2.2884 H   0  0  0  0  0  0  0  0  0  0  0  0
    3.2119   -4.5439   -0.4347 H   0  0  0  0  0  0  0  0  0  0  0  0
    3.0389   -1.7426   -3.1944 H   0  0  0  0  0  0  0  0  0  0  0  0
    1.2764   -3.4996   -3.3154 H   0  0  0  0  0  0  0  0  0  0  0  0
    1.3494   -3.6138   -1.4739 H   0  0  0  0  0  0  0  0  0  0  0  0
   -1.5626   -2.9710   -2.2844 H   0  0  0  0  0  0  0  0  0  0  0  0
   -2.9683   -1.1351   -2.2104 H   0  0  0  0  0  0  0  0  0  0  0  0
   -1.7736    1.1396   -3.0185 H   0  0  0  0  0  0  0  0  0  0  0  0
   -0.3730    0.5728   -2.0871 H   0  0  0  0  0  0  0  0  0  0  0  0
   -1.8272    2.1020   -0.8955 H   0  0  0  0  0  0  0  0  0  0  0  0
   -4.1092    1.3688   -1.6193 H   0  0  0  0  0  0  0  0  0  0  0  0
   -3.8216   -0.2275   -0.8668 H   0  0  0  0  0  0  0  0  0  0  0  0
   -5.1314    1.3683    0.6181 H   0  0  0  0  0  0  0  0  0  0  0  0
   -3.6921    2.4559    0.6273 H   0  0  0  0  0  0  0  0  0  0  0  0
   -3.6715   -0.5246    1.3259 H   0  0  0  0  0  0  0  0  0  0  0  0
   -3.8824    0.7546    2.5866 H   0  0  0  0  0  0  0  0  0  0  0  0
   -1.6187    1.7200    1.7488 H   0  0  0  0  0  0  0  0  0  0  0  0
   -1.4910    0.0120    2.3140 H   0  0  0  0  0  0  0  0  0  0  0  0
   -0.3486    0.2846    0.2338 H   0  0  0  0  0  0  0  0  0  0  0  0
   -1.7327   -0.8258    0.0449 H   0  0  0  0  0  0  0  0  0  0  0  0
  1  2  1  0
  2  3  1  0
  3  4  1  0
  3  5  2  0
  5  6  1  0
  6  7  1  0
  7  8  2  0
  7  9  1  0
  9 10  2  0
 10 11  1  0
 11 12  1  0
 12 13  1  0
 13 14  1  0
 14 15  1  0
 15 16  1  0
 16 17  1  0
 17 12  1  0
  1 18  1  0
  1 19  1  0
  1 20  1  0
  2 21  1  0
  2 22  1  0
  4 23  1  0
  5 24  1  0
  6 25  1  0
  6 26  1  0
  9 27  1  0
 10 28  1  0
 11 29  1  0
 11 30  1  0
 12 31  1  0
 13 32  1  0
 13 33  1  0
 14 34  1  0
 14 35  1  0
 15 36  1  0
 15 37  1  0
 16 38  1  0
 16 39  1  0
 17 40  1  0
 17 41  1  0
M  END
$$$$
